/batch
/config,noeldb,1     ! force off writing results to database
*get,_wallstrt,active,,time,wall
! ANSYS input file written by Workbench version 18.2 RELEASE
! File used for geometry attach: C:\Users\Saraswathi Andappan\Desktop\ANSYS Cornell\Bolted Flange_files\dp0\SYS\DM\SYS.agdb
/title,Bolted Nozzle Flange--Static Structural (B5)
*DIM,_wb_ProjectScratch_dir,string,248
_wb_ProjectScratch_dir(1) = 'C:\Users\Saraswathi Andappan\Desktop\ANSYS Cornell\_ProjectScratch\ScrD813\'
*DIM,_wb_SolverFiles_dir,string,248
_wb_SolverFiles_dir(1) = 'C:\Users\Saraswathi Andappan\Desktop\ANSYS Cornell\Bolted Nozzle Flange_files\dp0\SYS-1\MECH\'
*DIM,_wb_userfiles_dir,string,248
_wb_userfiles_dir(1) = 'C:\Users\Saraswathi Andappan\Desktop\ANSYS Cornell\Bolted Nozzle Flange_files\user_files\'
/com,--- Data in consistent BIN units. See Solving Units in the help system for more information.
/units,BIN
/nopr
/wb,file,start              !  signify a WB generated input file
/prep7
! Turn off shape checking because checks already performed inside WB mesher.
! See help system for more information.
SHPP,OFF,,NOWARN
/nolist
etcon,set             ! allow ANSYS to choose best KEYOP's for 180x elements
/com,*********** Nodes for the whole assembly ***********
nblock,3,,28701
(1i9,3e20.9e3)
        1    6.875874935E-002    5.651924309E+001    7.969324265E+001
        2    8.159084260E-002    5.651027167E+001    7.949382211E+001
        3    1.060773961E-001    5.613417692E+001    7.952747851E+001
        4    2.049189612E-001    5.635353235E+001    7.949635286E+001
        5    2.236000947E-001    5.637938010E+001    7.970274629E+001
        6    2.033167612E-001    5.633796033E+001    7.962515007E+001
        7    1.554818580E-001    5.643397700E+001    7.946693443E+001
        8    1.127839989E-001    5.614255666E+001    7.965459250E+001
        9    1.076283242E-001    5.650971511E+001    7.972532595E+001
       10    1.205320555E-001    5.643200706E+001    7.972209182E+001
       11    1.972453438E-001    5.633775572E+001    7.968975058E+001
       12    1.065687897E-001    5.654502696E+001    7.965056769E+001
       13    7.251247090E-002    5.613936911E+001    7.970020172E+001
       14    2.010197918E-001    5.635002214E+001    7.956219573E+001
       15    1.069882614E-001    5.652494692E+001    7.952732717E+001
       16    1.716030809E-001    5.625602323E+001    7.971978444E+001
       17    7.230984712E-002    5.614057912E+001    7.949405496E+001
       18    1.675673334E-001    5.624349743E+001    7.946076523E+001
       19    0.000000000E+000    5.652562500E+001    7.969979688E+001
       20    0.000000000E+000    5.652562500E+001    7.948820312E+001
! ... 26073 like lines cut
/wb,elem,start            !  set before creation of elements
/com,*********** Elements for Body 1 "MidNozzle" ***********
et,1,187
eblock,19,solid,,16
(19i9)
        1        1        1        1        0        0        0        0       10        0      614     2608     2616     5936     4843     5950     6027     5960     5953
     6026    12399
        1        1        1        1        0        0        0        0       10        0      615     2608     4845     5938     2614     5955    12402     5962     5948
     6018     6019
        1        1        1        1        0        0        0        0       10        0      616     2613     3430     3970     3429     6008     9284     6010     6007
     9279     9280
        1        1        1        1        0        0        0        0       10        0      617     2610     2619     2689     2617     5976     6037     5982     5975
     6028     6030
        1        1        1        1        0        0        0        0       10        0      618     2613     4830     2619     2618     6012     6040     6006     6005
     6035     6032
        1        1        1        1        0        0        0        0       10        0      619     2611     2616     4843     5936     5987     6026     5991     5993
     6027    12399
        1        1        1        1        0        0        0        0       10        0      620     2611     4843     2616     4810     5991     6026     5987     5988
    12327     6024
        1        1        1        1        0        0        0        0       10        0      621     2611     4811     5936     5935     5989    12331     5993     5992
    12330    14035
        1        1        1        1        0        0        0        0       10        0      622     2610     2617     2689     2665     5975     6030     5982     5979
     6029     6250
        1        1        1        1        0        0        0        0       10        0      623     2611     4842     4843     4810     5990    12396     5991     5988
    12326    12327
! ... 13 like lines cut
!Material Id = {2E1BF2F9-C269-4F30-B04A-E70C753159B4}
et,2,186
keyo,2,2,1          ! set full integration on SOLID186
eblock,19,solid,,1695
(19i9)
        1        2        1        1        0        0        0        0       20        0      630     2618     4830     4832     4816     3429     3986     3987     3979
     6035    12371    12341     6034     9282    10401    10385     9281     6033    10402    10403    10386
        1        2        1        1        0        0        0        0       20        0      631     3979     3987     4832     4816     3980     3983     5931     4840
    10385    10403    12341    10386    10388    10397    12392    10389    10384    10396    12375    12342
        1        2        1        1        0        0        0        0       20        0      632     2616     4810     4813     4820     5936     4811     4812     4828
     6024    12325    12334     6025    12331    12328    12333    12367     6027    12324    12332    12352
        1        2        1        1        0        0        0        0       20        0      633     4805     4815     4814     4809     4818     4829     4831     4817
    12314    12336    12322    12313    12347    12369    12344    12343    12315    12338    12337    12323
        1        2        1        1        0        0        0        0       20        0      634     2614     2615     4821     4822     5938     5937     4824     4826
     6015     6021    12353     6017    14037    12363    12361    12365     6019     6023    12355    12357
        1        2        1        1        0        0        0        0       20        0      635     2615     2616     4820     4821     5937     5936     4828     4824
     6020     6025    12350     6021    14036    12367    12362    12363     6023     6027    12352    12355
        1        2        1        1        0        0        0        0       20        0      636     2614     4822     4821     2615     4845     4825     4823     4844
     6017    12353     6021     6015    12364    12358    12360    12400     6018    12356    12354     6022
        1        2        1        1        0        0        0        0       20        0      637     2615     4821     4820     2616     4844     4823     4827     4843
     6021    12350     6025     6020    12360    12359    12366    12398     6022    12354    12351     6026
        1        2        1        1        0        0        0        0       20        0      638     2617     2665     2620     2619     4818     5112     5113     4819
     6029     6043     6036     6028    12348    12937    12349    12346     6031     6252     6046     6039
        1        2        1        1        0        0        0        0       20        0      639     2618     2619     3430     3429     4816     4819     3968     3979
     6032     6038     9279     6033    12340    10364    10363    10386     6034     6039     9283     9281
! ... 3371 like lines cut
!Material Id = {2E1BF2F9-C269-4F30-B04A-E70C753159B4}
/com,*********** Elements for Body 3 "LowerNozzle" ***********
et,3,187
eblock,19,solid,,55
(19i9)
        3        3        3        3        0        0        0        0       10        0     2325    14057    16338    14380    14061    17668    19345    17662    17660
    17697    17693
        3        3        3        3        0        0        0        0       10        0     2326    14057    14232    14061    14649    17661    17690    17660    17663
    18598    17694
        3        3        3        3        0        0        0        0       10        0     2327    14057    14232    14649    14380    17661    18598    17663    17662
    18596    19342
        3        3        3        3        0        0        0        0       10        0     2328    14045    14648    14650    14368    17587    20324    17588    17586
    19285    19287
        3        3        3        3        0        0        0        0       10        0     2329    14057    14649    14061    14380    17663    17694    17660    17662
    19342    17693
        3        3        3        3        0        0        0        0       10        0     2330    14043    16371    16352    14369    17577    24329    17567    17553
    19295    19293
        3        3        3        3        0        0        0        0       10        0     2331    14651    14652    16308    15496    20334    20346    20338    20335
    20343    22339
        3        3        3        3        0        0        0        0       10        0     2332    14045    14365    14655    14648    17585    19270    17589    17587
    19269    20325
        3        3        3        3        0        0        0        0       10        0     2333    14043    14364    16328    14369    17552    19264    17563    17553
    19261    19292
        3        3        3        3        0        0        0        0       10        0     2334    14043    16336    16313    14055    17565    24248    17558    17551
    17652    17650
! ... 91 like lines cut
!Material Id = {95307CF0-C977-48CF-A588-B0B4CBE92B41}
et,4,186
keyo,4,2,1          ! set full integration on SOLID186
eblock,19,solid,,1850
(19i9)
        3        4        3        3        0        0        0        0       20        0     2380    14073    14075    15760    15761    16971    16972    16297    16299
    17777    17791    23129    17780    25285    24215    24214    24219    17782    17793    23131    23134
        3        4        3        3        0        0        0        0       20        0     2381    14101    14103    15746    15747    16985    16986    16269    16271
    17934    17950    23087    17937    25313    24159    24158    24163    17939    17952    23089    23092
        3        4        3        3        0        0        0        0       20        0     2382    14211    15692    15691    14213    16861    16160    16158    16860
    18506    22922    18516    18505    23941    23936    23937    25156    18507    22926    22923    18517
        3        4        3        3        0        0        0        0       20        0     2383    14553    14554    15592    15591    16760    16761    15960    15958
    19945    19950    22622    19946    25056    23541    23536    23537    19947    19951    22626    22623
        3        4        3        3        0        0        0        0       20        0     2384    14360    14362    14363    14361    17240    17233    17232    17241
    19244    19253    19248    19243    25810    25807    25808    25821    19247    19257    19260    19252
        3        4        3        3        0        0        0        0       20        0     2385    14205    14207    15694    15695    17037    17038    16165    16167
    18477    18486    22931    18479    25417    23951    23950    23955    18481    18488    22933    22936
        3        4        3        3        0        0        0        0       20        0     2386    14042    14542    14262    14263    16747    16746    16588    16587
    17545    18749    18747    17544    25042    24806    24803    24804    17547    19904    18751    18754
        3        4        3        3        0        0        0        0       20        0     2387    14118    14867    14866    14503    17446    15349    15347    17445
    18034    21009    19783    18032    22041    22036    22037    26026    18036    21014    21011    19785
        3        4        3        3        0        0        0        0       20        0     2388    14209    15693    15692    14211    16862    16162    16160    16861
    18497    22925    18506    18495    23945    23940    23941    25157    18498    22929    22926    18507
        3        4        3        3        0        0        0        0       20        0     2389    14304    14702    14701    14307    17281    14959    14955    17280
    18961    20514    18976    18959    21261    21252    21253    25861    18963    20519    20516    18978
! ... 3681 like lines cut
!Material Id = {95307CF0-C977-48CF-A588-B0B4CBE92B41}
/com,*********** Elements for Body 5 "Bolt" ***********
et,5,187
eblock,19,solid,,45
(19i9)
        5        5        5        5        0        0        0        0       10        0      154      653      798      740      659     1290     1679     1281     1277
     1345     1343
        5        5        5        5        0        0        0        0       10        0      155      658      811      808      805     1342     1915     1340     1338
     1905     1903
        5        5        5        5        0        0        0        0       10        0      156      638      665      657      656     1180     1317     1178     1177
     1309     1307
        5        5        5        5        0        0        0        0       10        0      157      661      805      808      811     1365     1903     1366     1367
     1905     1915
        5        5        5        5        0        0        0        0       10        0      158      652      805      660      806     1274     1356     1271     1275
     1902     1357
        5        5        5        5        0        0        0        0       10        0      159      650      682      759      697     1246     1463     1252     1250
     1462     1520
        5        5        5        5        0        0        0        0       10        0      160      633      757      653      752     1150     1286     1145     1149
     1722     1285
        5        5        5        5        0        0        0        0       10        0      161      644      677      829      670     1211     1440     1215     1210
     1413     1415
        5        5        5        5        0        0        0        0       10        0      162      644      829      677      686     1215     1440     1211     1213
     1480     1439
        5        5        5        5        0        0        0        0       10        0      163      639      653      792      657     1184     1288     1188     1185
     1276     1323
! ... 71 like lines cut
!Material Id = {57595DA4-BAE6-4B51-B6F5-D8B889134CBB}
et,6,186
keyo,6,2,1          ! set full integration on SOLID186
eblock,19,solid,,415
(19i9)
        5        6        5        5        0        0        0        0       20        0      199      681      692      694      682      754      756      763      759
     1456     1501     1461     1455     1728     1735     1745     1730     1458     1502     1509     1463
        5        6        5        5        0        0        0        0       20        0      200      645      773      768      646      779      777      771      775
     1217     1778     1223     1216     1808     1788     1787     1801     1218     1796     1777     1224
        5        6        5        5        0        0        0        0       20        0      201      638      673      675      642      720      717      723      725
     1182     1423     1202     1176     1590     1591     1612     1602     1183     1424     1430     1203
        5        6        5        5        0        0        0        0       20        0      202      646      743      800      794      775      769      804      795
     1221     1691     1866     1225     1780     1781     1870     1802     1224     1690     1886     1865
        5        6        5        5        0        0        0        0       20        0      203      636      657      750      751      664      665      995      997
     1167     1321     1714     1169     1391     1397     2347     1394     1168     1317     1716     1720
        5        6        5        5        0        0        0        0       20        0      204      676      685      687      678      741      739      745      746
     1434     1474     1443     1432     1672     1673     1697     1682     1435     1475     1483     1445
        5        6        5        5        0        0        0        0       20        0      205      637      784      776      641      813      818      822      807
     1173     1804     1195     1170     1930     1948     1913     1912     1175     1831     1806     1197
        5        6        5        5        0        0        0        0       20        0      206      642      675      679      643      725      723      731      730
     1202     1429     1208     1198     1612     1613     1637     1621     1203     1430     1448     1209
        5        6        5        5        0        0        0        0       20        0      207      633      634      765      757      646      645      773      768
     1142     1157     1738     1150     1216     1217     1778     1223     1144     1154     1766     1739
        5        6        5        5        0        0        0        0       20        0      208      633      634      640      636      757      765      761      751
     1142     1153     1164     1143     1738     1751     1719     1718     1150     1157     1192     1169
! ... 811 like lines cut
!Material Id = {57595DA4-BAE6-4B51-B6F5-D8B889134CBB}
/com,*********** Elements for Body 7 "Nut" ***********
et,7,187
eblock,19,solid,,22
(19i9)
        7        7        7        7        0        0        0        0       10        0        1        1       12      125      124      163      256      168      167
      255      571
        7        7        7        7        0        0        0        0       10        0        2        8      129       13      126      227      264      223      226
      575      263
        7        7        7        7        0        0        0        0       10        0        3       10       63       55       60      242      410      239      240
      422      408
        7        7        7        7        0        0        0        0       10        0        4       10      114       52      115      243      400      238      244
      549      401
        7        7        7        7        0        0        0        0       10        0        5       10       60       55      125      240      408      239      245
      423      411
        7        7        7        7        0        0        0        0       10        0        6        1        9      125      157      162      236      168      169
      237      573
        7        7        7        7        0        0        0        0       10        0        7       10       62      115       52      241      428      244      238
      398      401
        7        7        7        7        0        0        0        0       10        0        8        3       17      121      140      178      297      180      185
      300      566
        7        7        7        7        0        0        0        0       10        0        9       17       18      121      140      294      313      297      300
      315      566
        7        7        7        7        0        0        0        0       10        0       10        1      125       12      157      168      256      163      169
      573      257
! ... 25 like lines cut
!Material Id = {9B679658-D1BC-4F3D-BF1D-7F8512BDC3C3}
et,8,186
keyo,8,2,1          ! set full integration on SOLID186
eblock,19,solid,,131
(19i9)
        7        8        7        7        0        0        0        0       20        0       23        2       76       34       20       97       80       31       30
      173      354      324      172      469      349      346      347      174      457      348      322
        7        8        7        7        0        0        0        0       20        0       24       17       75       90      140      128       93       77      133
      296      454      490      300      493      461      462      579      299      456      460      587
        7        8        7        7        0        0        0        0       20        0       25       52      114      125       55       65      152      157       61
      400      550      411      397      432      623      425      424      399      551      573      409
        7        8        7        7        0        0        0        0       20        0       26      108      119      142      135      117      118      143      137
      535      562      594      536      556      559      597      557      534      558      606      592
        7        8        7        7        0        0        0        0       20        0       27      108      119      120      109      135      142      141      134
      535      560      538      533      594      605      591      588      536      562      565      539
        7        8        7        7        0        0        0        0       20        0       28        6       14      155      156      138      139      147      146
      204      268      628      207      599      603      609      601      206      267      613      611
        7        8        7        7        0        0        0        0       20        0       29        6      156      161       11      138      146      148      145
      207      629      250      203      601      610      608      600      206      611      614      249
        7        8        7        7        0        0        0        0       20        0       30       17       36       47      121       75       50       46       92
      295      360      387      297      392      385      386      455      296      362      384      492
        7        8        7        7        0        0        0        0       20        0       31        2       20       29      123       97       30       28       94
      172      321      345      176      347      342      343      495      174      322      341      497
        7        8        7        7        0        0        0        0       20        0       32      106      123      159      151      113      122      160      153
      528      570      622      529      547      568      626      548      527      567      632      620
! ... 243 like lines cut
!Material Id = {9B679658-D1BC-4F3D-BF1D-7F8512BDC3C3}
/wb,elem,end               !  done creating elements
/com,*********** Send User Defined Coordinate System(s) ***********
local,12,0,0.,0.,0.,-0.,90.,90.
local,13,0,0.,0.,0.,-0.,90.,-90.9
csys,0
toffst,459.67,  ! Temperature offset from absolute zero
/com,*********** Set Reference Temperature ***********
tref,70.
/wb,mat,start              !  starting to send materials
/com,*********** Send Materials ***********
MP,EX,1,28999999.9967895,	! slinch s^-2 in^-1
MP,NUXY,1,0.27,
MP,ALPX,1,1e-05,	! F^-1

MP,EX,3,28999999.9967895,	! slinch s^-2 in^-1
MP,NUXY,3,0.27,
MP,ALPX,3,1e-05,	! F^-1

MP,EX,5,28999999.9967895,	! slinch s^-2 in^-1
MP,NUXY,5,0.31,
MP,ALPX,5,9.50000000000001e-06,	! F^-1

MP,EX,7,28999999.9967895,	! slinch s^-2 in^-1
MP,NUXY,7,0.31,
MP,ALPX,7,9.50000000000001e-06,	! F^-1

/wb,mat,end                !  done sending materials
!************************* Model Summary ********************
!MidNozzle,	300 Series Stainless Steel,	matid,	1
!LowerNozzle,	300 Series Stainless Steel,	matid,	3
!Bolt,	A - 286 Steel,	matid,	5
!Nut,	A - 286 Steel,	matid,	7
!************************* End Model Summary ********************
! get the diagonal of the bounding box. Needed later for other things
*get,_xmin,node,,mnloc,x
*get,_ymin,node,,mnloc,y
*get,_zmin,node,,mnloc,z
*get,_xmax,node,,mxloc,x
*get,_ymax,node,,mxloc,y
*get,_zmax,node,,mxloc,z
_ASMDIAG=(_xmax-_xmin)*(_xmax-_xmin)+(_ymax-_ymin)*(_ymax-_ymin)+(_zmax-_zmin)*(_zmax-_zmin)
_ASMDIAG=SQRT(_ASMDIAG)
/wb,contact,start          !  starting to send contact
/com,*********** Create Contact "Bonded - Bolt To Nut" ***********
/com,            Real Constant Set For Above Contact Is 10 & 9 
*set,tid,10
*set,cid,9
r,tid
r,cid
et,tid,170
et,cid,174
eblock,10,,,63
(15i9)
     4230       10       10       10        0     1094     1136     1095     1135     2526     2531     2530     2525
     4231       10       10       10        0     1135     1096     1137     1094     2534     2535     2527     2525
     4232       10       10       10        0     1094     1141     1100     1136     2528     2549     2547     2526
     4233       10       10       10        0     1094     1137     1102     1141     2527     2556     2557     2528
     4234       10       10       10        0     1136     1097     1098     1095     2539     2537     2529     2531
     4235       10       10       10        0     1100     1140     1097     1136     2548     2540     2539     2547
     4236       10       10       10        0     1095     1139     1104     1135     2532     2563     2561     2530
     4237       10       10       10        0     1104     1138     1096     1135     2562     2536     2534     2561
     4238       10       10       10        0     1095     1098     1106     1139     2529     2542     2568     2532
     4239       10       10       10        0     1137     1101     1108     1102     2553     2551     2554     2556
     4240       10       10       10        0     1140     1107     1099     1097     2571     2544     2538     2540
     4241       10       10       10        0     1096     1103     1101     1137     2533     2550     2553     2535
     4242       10       10       10        0     1138     1109     1103     1096     2576     2558     2533     2536
     4243       10       10       10        0     1097     1099     1105     1098     2538     2543     2541     2537
     4244       10       10       10        0     1098     1105     1110     1106     2541     2564     2566     2542
     4245       10       10       10        0     1099     1113     1112     1105     2545     2581     2565     2543
     4246       10       10       10        0     1107     1114     1113     1099     2569     2582     2545     2544
     4247       10       10       10        0     1140     1117     1116     1107     2587     2585     2570     2571
     4248       10       10       10        0     1141     1119     1118     1100     2590     2588     2546     2549
     4249       10       10       10        0     1100     1118     1117     1140     2546     2586     2587     2548
! ... 44 like lines cut
eblock,10,,,63
(15i9)
     4293        9        9        9        0     1094     1136     1095     1135     2526     2531     2530     2525
     4294        9        9        9        0     1135     1096     1137     1094     2534     2535     2527     2525
     4295        9        9        9        0     1094     1141     1100     1136     2528     2549     2547     2526
     4296        9        9        9        0     1094     1137     1102     1141     2527     2556     2557     2528
     4297        9        9        9        0     1136     1097     1098     1095     2539     2537     2529     2531
     4298        9        9        9        0     1100     1140     1097     1136     2548     2540     2539     2547
     4299        9        9        9        0     1095     1139     1104     1135     2532     2563     2561     2530
     4300        9        9        9        0     1104     1138     1096     1135     2562     2536     2534     2561
     4301        9        9        9        0     1095     1098     1106     1139     2529     2542     2568     2532
     4302        9        9        9        0     1137     1101     1108     1102     2553     2551     2554     2556
     4303        9        9        9        0     1140     1107     1099     1097     2571     2544     2538     2540
     4304        9        9        9        0     1096     1103     1101     1137     2533     2550     2553     2535
     4305        9        9        9        0     1138     1109     1103     1096     2576     2558     2533     2536
     4306        9        9        9        0     1097     1099     1105     1098     2538     2543     2541     2537
     4307        9        9        9        0     1098     1105     1110     1106     2541     2564     2566     2542
     4308        9        9        9        0     1099     1113     1112     1105     2545     2581     2565     2543
     4309        9        9        9        0     1107     1114     1113     1099     2569     2582     2545     2544
     4310        9        9        9        0     1140     1117     1116     1107     2587     2585     2570     2571
     4311        9        9        9        0     1141     1119     1118     1100     2590     2588     2546     2549
     4312        9        9        9        0     1100     1118     1117     1140     2546     2586     2587     2548
! ... 44 like lines cut
eblock,10,,,35
(15i9)
     4356        9       10        9        0      105      104      103      102      519      515      510      511
     4357        9       10        9        0      102      112      111      105      513      543      524      511
     4358        9       10        9        0      103      107      106      102      516      526      512      510
     4359        9       10        9        0      106      113      112      102      527      545      513      512
     4360        9       10        9        0      104      116      115      103      521      552      517      515
     4361        9       10        9        0      103      115      114      107      517      549      530      516
     4362        9       10        9        0      105      109      108      104      523      533      520      519
     4363        9       10        9        0      108      117      116      104      534      554      521      520
     4364        9       10        9        0      105      111      110      109      524      540      537      523
     4365        9       10        9        0      107      124      123      106      531      569      528      526
     4366        9       10        9        0      123      122      113      106      567      547      527      528
     4367        9       10        9        0      107      114      125      124      530      550      571      531
     4368        9       10        9        0      109      120      119      108      538      560      535      533
     4369        9       10        9        0      119      118      117      108      558      556      534      535
     4370        9       10        9        0      109      110      121      120      537      541      563      538
     4371        9       10        9        0      110       87       92      121      484      483      492      541
     4372        9       10        9        0      111       88       87      110      486      481      484      540
     4373        9       10        9        0      112       83       88      111      476      475      486      543
     4374        9       10        9        0      113       84       83      112      477      474      476      545
     4375        9       10        9        0      122       81       84      113      471      470      477      547
! ... 16 like lines cut
eblock,10,,,35
(15i9)
     4391       10        9       10        0      105      104      103      102      519      515      510      511
     4392       10        9       10        0      102      112      111      105      513      543      524      511
     4393       10        9       10        0      103      107      106      102      516      526      512      510
     4394       10        9       10        0      106      113      112      102      527      545      513      512
     4395       10        9       10        0      104      116      115      103      521      552      517      515
     4396       10        9       10        0      103      115      114      107      517      549      530      516
     4397       10        9       10        0      105      109      108      104      523      533      520      519
     4398       10        9       10        0      108      117      116      104      534      554      521      520
     4399       10        9       10        0      105      111      110      109      524      540      537      523
     4400       10        9       10        0      107      124      123      106      531      569      528      526
     4401       10        9       10        0      123      122      113      106      567      547      527      528
     4402       10        9       10        0      107      114      125      124      530      550      571      531
     4403       10        9       10        0      109      120      119      108      538      560      535      533
     4404       10        9       10        0      119      118      117      108      558      556      534      535
     4405       10        9       10        0      109      110      121      120      537      541      563      538
     4406       10        9       10        0      110       87       92      121      484      483      492      541
     4407       10        9       10        0      111       88       87      110      486      481      484      540
     4408       10        9       10        0      112       83       88      111      476      475      486      543
     4409       10        9       10        0      113       84       83      112      477      474      476      545
     4410       10        9       10        0      122       81       84      113      471      470      477      547
! ... 16 like lines cut
esel,s,type,,9
cm,_AllContacts,elem
keyo,cid,8,2               ! auto create asymmetric contact (from Program Controlled setting)
keyo,cid,10,0              ! adjust contact stiffness each NR iteration (from Program Controlled setting)
keyo,cid,12,5              ! bonded always
keyo,cid,2,0               ! augmented Lagrange (from Program Controlled setting)
keyo,cid,4,0               ! on Gauss point (from Program Controlled setting)
keyo,cid,9,1               ! ignore initial gaps/penetration
keyo,cid,7,0               ! No Prediction
rmod,tid,3,1.      ! FKN
rmod,tid,5,0.          ! ICONT
rmod,tid,6,0.        ! PINB
rmod,tid,10,0.        ! CNOF
rmod,tid,12,0.        ! FKT
rmod,tid,36,64         ! WB DSID
rmod,cid,3,1.      ! FKN
rmod,cid,5,0.          ! ICONT
rmod,cid,6,0.        ! PINB
rmod,cid,10,0.        ! CNOF
rmod,cid,12,0.        ! FKT
rmod,cid,36,64         ! WB DSID
/com,*********** Create Contact "Frictional - LowerNozzle To MidNozzle" ***********
/com,            Real Constant Set For Above Contact Is 12 & 11 
*set,tid,12
*set,cid,11
r,tid
r,cid
et,tid,170
et,cid,174
eblock,10,,,23
(15i9)
     4426       12       12       12        0    16355    16356    16316    16316    24335    24256    16316    24255
     4427       12       12       12        0    16355    16353    16352    16356    24330    24326    24327    24335
     4428       12       12       12        0    16352    16359    16357    16356    24328    24338    24336    24327
     4429       12       12       12        0    16359    16354    16358    16357    24332    24331    24337    24338
     4430       12       12       12        0    16359    15471    15470    16354    22287    22282    22284    24332
     4431       12       12       12        0    16352    15481    15471    16359    22308    22285    22287    24328
     4432       12       12       12        0    16353    15480    15481    16352    22306    22305    22308    24326
     4433       12       12       12        0    16355    16339    16340    16353    24303    24302    24304    24330
     4434       12       12       12        0    16340    15474    15480    16353    22294    22293    22306    24304
     4435       12       12       12        0    15470    15469    16360    16354    22279    22281    24333    22284
     4436       12       12       12        0    16354    16360    16361    16358    24333    24342    24339    24331
     4437       12       12       12        0    16361    15493    15492    16358    22332    22328    22330    24339
     4438       12       12       12        0    16316    16311    16339    16355    24242    24243    24303    24255
     4439       12       12       12        0    16356    16348    16319    16316    24322    24263    24254    24256
     4440       12       12       12        0    16357    16346    16348    16356    24318    24316    24322    24336
     4441       12       12       12        0    16358    16349    16346    16357    24323    24317    24318    24337
     4442       12       12       12        0    15492    15490    16349    16358    22323    22325    24323    22330
     4443       12       12       12        0    17511    17509    17510    17512    26090    26089    26091    26092
     4444       12       12       12        0    17512    16342    16341    17511    24307    24305    24306    26092
     4445       12       12       12        0    17511    16310    16307    17509    24240    24234    24235    26090
! ... 4 like lines cut
eblock,10,,,23
(15i9)
     4449       11       11       11        0    16355    16356    16316    16316    24335    24256    16316    24255
     4450       11       11       11        0    16355    16353    16352    16356    24330    24326    24327    24335
     4451       11       11       11        0    16352    16359    16357    16356    24328    24338    24336    24327
     4452       11       11       11        0    16359    16354    16358    16357    24332    24331    24337    24338
     4453       11       11       11        0    16359    15471    15470    16354    22287    22282    22284    24332
     4454       11       11       11        0    16352    15481    15471    16359    22308    22285    22287    24328
     4455       11       11       11        0    16353    15480    15481    16352    22306    22305    22308    24326
     4456       11       11       11        0    16355    16339    16340    16353    24303    24302    24304    24330
     4457       11       11       11        0    16340    15474    15480    16353    22294    22293    22306    24304
     4458       11       11       11        0    15470    15469    16360    16354    22279    22281    24333    22284
     4459       11       11       11        0    16354    16360    16361    16358    24333    24342    24339    24331
     4460       11       11       11        0    16361    15493    15492    16358    22332    22328    22330    24339
     4461       11       11       11        0    16316    16311    16339    16355    24242    24243    24303    24255
     4462       11       11       11        0    16356    16348    16319    16316    24322    24263    24254    24256
     4463       11       11       11        0    16357    16346    16348    16356    24318    24316    24322    24336
     4464       11       11       11        0    16358    16349    16346    16357    24323    24317    24318    24337
     4465       11       11       11        0    15492    15490    16349    16358    22323    22325    24323    22330
     4466       11       11       11        0    17511    17509    17510    17512    26090    26089    26091    26092
     4467       11       11       11        0    17512    16342    16341    17511    24307    24305    24306    26092
     4468       11       11       11        0    17511    16310    16307    17509    24240    24234    24235    26090
! ... 4 like lines cut
eblock,10,,,23
(15i9)
     4472       11       12       11        0     5936     5935     4811     4811    14035    12330     4811    12331
     4473       11       12       11        0     5936     5932     5931     5935    14031    14028    14029    14035
     4474       11       12       11        0     5931     4832     4831     5935    12375    12373    12374    14029
     4475       11       12       11        0     5932     3984     3983     5931    10399    10395    10397    14028
     4476       11       12       11        0     5931     3983     3987     4832    10397    10396    10403    12375
     4477       11       12       11        0     5936     5937     5933     5932    14036    14033    14030    14031
     4478       11       12       11        0     5933     3985     3984     5932    10400    10398    10399    14030
     4479       11       12       11        0     5937     5938     5934     5933    14037    14034    14032    14033
     4480       11       12       11        0     5934     3977     3985     5933    10382    10381    10400    14032
     4481       11       12       11        0     5934     4836     3978     3977    12383    10383    10380    10382
     4482       11       12       11        0     5938     4835     4836     5934    12381    12379    12383    14034
     4483       11       12       11        0     5938     3991     3993     4835    10414    10413    10417    12381
     4484       11       12       11        0     5935     4831     4814     4811    12374    12337    12329    12330
     4485       11       12       11        0     4811     4812     4828     5936    12328    12333    12367    12331
     4486       11       12       11        0     5936     4828     4824     5937    12367    12362    12363    14036
     4487       11       12       11        0     5937     4824     4826     5938    12363    12361    12365    14037
     4488       11       12       11        0     5938     4826     3989     3991    12365    10409    10408    10414
     4489       11       12       11        0     4829     4833     4266     4815    12370    11236    11235    12338
     4490       11       12       11        0     4815     4814     4831     4829    12336    12337    12369    12338
     4491       11       12       11        0     4831     4832     4830     4829    12373    12371    12368    12369
! ... 4 like lines cut
eblock,10,,,23
(15i9)
     4495       12       11       12        0     5936     5935     4811     4811    14035    12330     4811    12331
     4496       12       11       12        0     5936     5932     5931     5935    14031    14028    14029    14035
     4497       12       11       12        0     5931     4832     4831     5935    12375    12373    12374    14029
     4498       12       11       12        0     5932     3984     3983     5931    10399    10395    10397    14028
     4499       12       11       12        0     5931     3983     3987     4832    10397    10396    10403    12375
     4500       12       11       12        0     5936     5937     5933     5932    14036    14033    14030    14031
     4501       12       11       12        0     5933     3985     3984     5932    10400    10398    10399    14030
     4502       12       11       12        0     5937     5938     5934     5933    14037    14034    14032    14033
     4503       12       11       12        0     5934     3977     3985     5933    10382    10381    10400    14032
     4504       12       11       12        0     5934     4836     3978     3977    12383    10383    10380    10382
     4505       12       11       12        0     5938     4835     4836     5934    12381    12379    12383    14034
     4506       12       11       12        0     5938     3991     3993     4835    10414    10413    10417    12381
     4507       12       11       12        0     5935     4831     4814     4811    12374    12337    12329    12330
     4508       12       11       12        0     4811     4812     4828     5936    12328    12333    12367    12331
     4509       12       11       12        0     5936     4828     4824     5937    12367    12362    12363    14036
     4510       12       11       12        0     5937     4824     4826     5938    12363    12361    12365    14037
     4511       12       11       12        0     5938     4826     3989     3991    12365    10409    10408    10414
     4512       12       11       12        0     4829     4833     4266     4815    12370    11236    11235    12338
     4513       12       11       12        0     4815     4814     4831     4829    12336    12337    12369    12338
     4514       12       11       12        0     4831     4832     4830     4829    12373    12371    12368    12369
! ... 4 like lines cut
esel,s,type,,11
cm,contactElems67,elem
cmsel,a,_AllContacts,elem
cm,_AllContacts,elem
cmsel,s,contactElems67,elem
cmdele,contactElems67
keyo,cid,8,2               ! auto create asymmetric contact (from Program Controlled setting)
keyo,cid,10,0              ! adjust contact stiffness each NR iteration (from Program Controlled setting)
keyo,cid,12,0              ! standard contact
mp,mu,cid,0.5          ! unitless
keyo,cid,2,0               ! augmented Lagrange (from Program Controlled setting)
keyo,cid,4,0               ! on Gauss point (from Program Controlled setting)
keyo,cid,9,0               ! use real geometry with stepped effects
keyo,cid,7,0               ! No Prediction
rmod,tid,3,1.          ! FKN
rmod,tid,5,0.          ! ICONT
rmod,tid,6,0.        ! PINB
rmod,tid,10,0.        ! CNOF
rmod,tid,12,0.        ! FKT
rmod,tid,36,67         ! WB DSID
rmod,cid,3,1.      ! FKN
rmod,cid,5,0.          ! ICONT
rmod,cid,6,0.        ! PINB
rmod,cid,10,0.        ! CNOF
rmod,cid,12,0.        ! FKT
rmod,cid,36,67         ! WB DSID
/com,*********** Create Contact "Frictionless - MidNozzle To Bolt" ***********
/com,            Real Constant Set For Above Contact Is 14 & 13 
*set,tid,14
*set,cid,13
r,tid
r,cid
et,tid,170
et,cid,174
eblock,10,,,17
(15i9)
     4518       14       14       14        0     4842     4843     4810     4810    12396    12327     4810    12326
     4519       14       14       14        0     4842     4840     4839     4843    12391    12387    12388    12396
     4520       14       14       14        0     4839     4846     4844     4843    12389    12401    12398    12388
     4521       14       14       14        0     4846     4841     4845     4844    12394    12393    12400    12401
     4522       14       14       14        0     4846     3982     3975     4841    10394    10376    10377    12394
     4523       14       14       14        0     4839     3981     3982     4846    10392    10390    10394    12389
     4524       14       14       14        0     4840     3980     3981     4839    10389    10387    10392    12387
     4525       14       14       14        0     4840     4816     3979     3980    12342    10386    10384    10389
     4526       14       14       14        0     4842     4817     4816     4840    12345    12339    12342    12391
     4527       14       14       14        0     3975     3976     4838     4841    10374    10379    12386    10377
     4528       14       14       14        0     4841     4838     4837     4845    12386    12384    12385    12393
     4529       14       14       14        0     4810     4809     4817     4842    12321    12323    12345    12326
     4530       14       14       14        0     4837     3992     3990     4845    10416    10411    10412    12385
     4531       14       14       14        0     4843     4827     4813     4810    12366    12335    12325    12327
     4532       14       14       14        0     4844     4823     4827     4843    12360    12359    12366    12398
     4533       14       14       14        0     4845     4825     4823     4844    12364    12358    12360    12400
     4534       14       14       14        0     3990     3988     4825     4845    10405    10407    12364    10412
-1
eblock,10,,,17
(15i9)
     4535       13       13       13        0     4842     4843     4810     4810    12396    12327     4810    12326
     4536       13       13       13        0     4842     4840     4839     4843    12391    12387    12388    12396
     4537       13       13       13        0     4839     4846     4844     4843    12389    12401    12398    12388
     4538       13       13       13        0     4846     4841     4845     4844    12394    12393    12400    12401
     4539       13       13       13        0     4846     3982     3975     4841    10394    10376    10377    12394
     4540       13       13       13        0     4839     3981     3982     4846    10392    10390    10394    12389
     4541       13       13       13        0     4840     3980     3981     4839    10389    10387    10392    12387
     4542       13       13       13        0     4840     4816     3979     3980    12342    10386    10384    10389
     4543       13       13       13        0     4842     4817     4816     4840    12345    12339    12342    12391
     4544       13       13       13        0     3975     3976     4838     4841    10374    10379    12386    10377
     4545       13       13       13        0     4841     4838     4837     4845    12386    12384    12385    12393
     4546       13       13       13        0     4810     4809     4817     4842    12321    12323    12345    12326
     4547       13       13       13        0     4837     3992     3990     4845    10416    10411    10412    12385
     4548       13       13       13        0     4843     4827     4813     4810    12366    12335    12325    12327
     4549       13       13       13        0     4844     4823     4827     4843    12360    12359    12366    12398
     4550       13       13       13        0     4845     4825     4823     4844    12364    12358    12360    12400
     4551       13       13       13        0     3990     3988     4825     4845    10405    10407    12364    10412
-1
eblock,10,,,12
(15i9)
     4552       13       14       13        0      996      995      994      994     2346     2343      994     2344
     4553       13       14       13        0      996      998      997      995     2349     2351     2347     2346
     4554       13       14       13        0      999     1000      997      998     2356     2352     2351     2354
     4555       13       14       13        0     1002     1001     1000      999     2361     2359     2356     2357
     4556       13       14       13        0      994      995      993      992     2343     2341     2338     2339
     4557       13       14       13        0      992      993      991      990     2338     2336     2333     2334
     4558       13       14       13        0      991      987      989      990     2328     2327     2331     2333
     4559       13       14       13        0      991      911      954      987     2180     2179     2265     2328
     4560       13       14       13        0      987      954      955      989     2265     2264     2267     2327
     4561       13       14       13        0     1002     1003      988     1001     2363     2330     2329     2361
     4562       13       14       13        0      988      958      914     1001     2272     2188     2189     2329
     4563       13       14       13        0     1003      959      958      988     2273     2271     2272     2330
-1
eblock,10,,,12
(15i9)
     4564       14       13       14        0      996      995      994      994     2346     2343      994     2344
     4565       14       13       14        0      996      998      997      995     2349     2351     2347     2346
     4566       14       13       14        0      999     1000      997      998     2356     2352     2351     2354
     4567       14       13       14        0     1002     1001     1000      999     2361     2359     2356     2357
     4568       14       13       14        0      994      995      993      992     2343     2341     2338     2339
     4569       14       13       14        0      992      993      991      990     2338     2336     2333     2334
     4570       14       13       14        0      991      987      989      990     2328     2327     2331     2333
     4571       14       13       14        0      991      911      954      987     2180     2179     2265     2328
     4572       14       13       14        0      987      954      955      989     2265     2264     2267     2327
     4573       14       13       14        0     1002     1003      988     1001     2363     2330     2329     2361
     4574       14       13       14        0      988      958      914     1001     2272     2188     2189     2329
     4575       14       13       14        0     1003      959      958      988     2273     2271     2272     2330
-1
esel,s,type,,13
cm,contactElems70,elem
cmsel,a,_AllContacts,elem
cm,_AllContacts,elem
cmsel,s,contactElems70,elem
cmdele,contactElems70
keyo,cid,8,2               ! auto create asymmetric contact (from Program Controlled setting)
keyo,cid,10,0              ! adjust contact stiffness each NR iteration (from Program Controlled setting)
keyo,cid,12,0              ! standard contact
keyo,cid,2,0               ! augmented Lagrange (from Program Controlled setting)
keyo,cid,4,0               ! on Gauss point (from Program Controlled setting)
keyo,cid,9,0               ! use real geometry with stepped effects
keyo,cid,7,0               ! No Prediction
rmod,tid,3,1.      ! FKN
rmod,tid,5,0.          ! ICONT
rmod,tid,6,0.        ! PINB
rmod,tid,10,0.        ! CNOF
rmod,tid,12,0.        ! FKT
rmod,tid,36,70         ! WB DSID
rmod,cid,3,1.      ! FKN
rmod,cid,5,0.          ! ICONT
rmod,cid,6,0.        ! PINB
rmod,cid,10,0.        ! CNOF
rmod,cid,12,0.        ! FKT
rmod,cid,36,70         ! WB DSID
/com,*********** Create Contact "Frictionless - LowerNozzle To Nut" ***********
/com,            Real Constant Set For Above Contact Is 16 & 15 
*set,tid,16
*set,cid,15
r,tid
r,cid
et,tid,170
et,cid,174
eblock,10,,,19
(15i9)
     4576       16       16       16        0    16366    16362    16367    16365    24346    24347    24355    24354
     4577       16       16       16        0    16368    16362    16366    16317    24348    24346    24258    24259
     4578       16       16       16        0    16368    16369    16363    16362    24357    24350    24345    24348
     4579       16       16       16        0    16363    16371    16367    16362    24351    24356    24347    24345
     4580       16       16       16        0    16369    16370    16364    16363    24358    24352    24349    24350
     4581       16       16       16        0    16363    15483    15482    16371    22311    22309    22310    24351
     4582       16       16       16        0    16364    15472    15483    16363    22290    22289    22311    24349
     4583       16       16       16        0    16367    16328    16327    16365    24284    24280    24282    24355
     4584       16       16       16        0    16364    16372    15473    15472    24353    22291    22288    22290
     4585       16       16       16        0    16370    16373    16372    16364    24359    24360    24353    24352
     4586       16       16       16        0    16370    15495    15494    16373    22335    22333    22334    24359
     4587       16       16       16        0    16365    16327    16331    16366    24282    24281    24290    24354
     4588       16       16       16        0    16366    16331    16315    16317    24290    24252    24251    24258
     4589       16       16       16        0    16371    16334    16328    16367    24293    24283    24284    24356
     4590       16       16       16        0    15482    15479    16334    16371    22303    22304    24293    22310
     4591       16       16       16        0    16317    16318    16350    16368    24257    24261    24324    24259
     4592       16       16       16        0    16368    16350    16347    16369    24324    24319    24321    24357
     4593       16       16       16        0    16369    16347    16351    16370    24321    24320    24325    24358
     4594       16       16       16        0    16370    16351    15491    15495    24325    22327    22326    22335
-1
eblock,10,,,19
(15i9)
     4595       15       15       15        0    16366    16362    16367    16365    24346    24347    24355    24354
     4596       15       15       15        0    16368    16362    16366    16317    24348    24346    24258    24259
     4597       15       15       15        0    16368    16369    16363    16362    24357    24350    24345    24348
     4598       15       15       15        0    16363    16371    16367    16362    24351    24356    24347    24345
     4599       15       15       15        0    16369    16370    16364    16363    24358    24352    24349    24350
     4600       15       15       15        0    16363    15483    15482    16371    22311    22309    22310    24351
     4601       15       15       15        0    16364    15472    15483    16363    22290    22289    22311    24349
     4602       15       15       15        0    16367    16328    16327    16365    24284    24280    24282    24355
     4603       15       15       15        0    16364    16372    15473    15472    24353    22291    22288    22290
     4604       15       15       15        0    16370    16373    16372    16364    24359    24360    24353    24352
     4605       15       15       15        0    16370    15495    15494    16373    22335    22333    22334    24359
     4606       15       15       15        0    16365    16327    16331    16366    24282    24281    24290    24354
     4607       15       15       15        0    16366    16331    16315    16317    24290    24252    24251    24258
     4608       15       15       15        0    16371    16334    16328    16367    24293    24283    24284    24356
     4609       15       15       15        0    15482    15479    16334    16371    22303    22304    24293    22310
     4610       15       15       15        0    16317    16318    16350    16368    24257    24261    24324    24259
     4611       15       15       15        0    16368    16350    16347    16369    24324    24319    24321    24357
     4612       15       15       15        0    16369    16347    16351    16370    24321    24320    24325    24358
     4613       15       15       15        0    16370    16351    15491    15495    24325    22327    22326    22335
-1
eblock,10,,,16
(15i9)
     4614       15       16       15        0       60       63       55       55      422      410       55      408
     4615       15       16       15        0       69       66       71       54      434      435      406      405
     4616       15       16       15        0       52       55       63       62      397      410      426      398
     4617       15       16       15        0       62       67       51       52      427      395      393      398
     4618       15       16       15        0       51       64       65       52      394      430      399      393
     4619       15       16       15        0       51       68       58       64      396      419      418      394
     4620       15       16       15        0       67       70       68       51      437      439      396      395
     4621       15       16       15        0       67       66       69       70      433      434      441      437
     4622       15       16       15        0       54       72       56       69      407      413      412      405
     4623       15       16       15        0       52       65       61       55      399      424      409      397
     4624       15       16       15        0       61       53       60       55      404      403      408      409
     4625       15       16       15        0       61       57       59       53      416      415      402      404
     4626       15       16       15        0       53       22       23       60      329      328      331      403
     4627       15       16       15        0       71       37       38       54      365      363      367      406
     4628       15       16       15        0       59       21       22       53      327      325      329      402
     4629       15       16       15        0       54       38       39       72      367      366      369      407
-1
eblock,10,,,16
(15i9)
     4630       16       15       16        0       60       63       55       55      422      410       55      408
     4631       16       15       16        0       69       66       71       54      434      435      406      405
     4632       16       15       16        0       52       55       63       62      397      410      426      398
     4633       16       15       16        0       62       67       51       52      427      395      393      398
     4634       16       15       16        0       51       64       65       52      394      430      399      393
     4635       16       15       16        0       51       68       58       64      396      419      418      394
     4636       16       15       16        0       67       70       68       51      437      439      396      395
     4637       16       15       16        0       67       66       69       70      433      434      441      437
     4638       16       15       16        0       54       72       56       69      407      413      412      405
     4639       16       15       16        0       52       65       61       55      399      424      409      397
     4640       16       15       16        0       61       53       60       55      404      403      408      409
     4641       16       15       16        0       61       57       59       53      416      415      402      404
     4642       16       15       16        0       53       22       23       60      329      328      331      403
     4643       16       15       16        0       71       37       38       54      365      363      367      406
     4644       16       15       16        0       59       21       22       53      327      325      329      402
     4645       16       15       16        0       54       38       39       72      367      366      369      407
-1
esel,s,type,,15
cm,contactElems73,elem
cmsel,a,_AllContacts,elem
cm,_AllContacts,elem
cmsel,s,contactElems73,elem
cmdele,contactElems73
keyo,cid,8,2               ! auto create asymmetric contact (from Program Controlled setting)
keyo,cid,10,0              ! adjust contact stiffness each NR iteration (from Program Controlled setting)
keyo,cid,12,0              ! standard contact
keyo,cid,2,0               ! augmented Lagrange (from Program Controlled setting)
keyo,cid,4,0               ! on Gauss point (from Program Controlled setting)
keyo,cid,9,0               ! use real geometry with stepped effects
keyo,cid,7,0               ! No Prediction
rmod,tid,3,1.       ! FKN
rmod,tid,5,0.          ! ICONT
rmod,tid,6,0.        ! PINB
rmod,tid,10,0.        ! CNOF
rmod,tid,12,0.        ! FKT
rmod,tid,36,73         ! WB DSID
rmod,cid,3,1.      ! FKN
rmod,cid,5,0.          ! ICONT
rmod,cid,6,0.        ! PINB
rmod,cid,10,0.        ! CNOF
rmod,cid,12,0.        ! FKT
rmod,cid,36,73         ! WB DSID
/com,*********** Create Contact "Frictionless - Bolt To Multiple" ***********
/com,            Real Constant Set For Above Contact Is 18 & 17 
*set,tid,18
*set,cid,17
r,tid
r,cid
et,tid,170
et,cid,174
eblock,10,,,49
(15i9)
     4646       18       18       18        0     1054     1052     1057     1087     2449     2451     2466     2457
     4647       18       18       18        0     1087     1061     1055     1054     2478     2459     2455     2457
     4648       18       18       18        0     1054     1085     1053     1052     2456     2453     2448     2449
     4649       18       18       18        0     1085     1060     1086     1053     2474     2475     2454     2453
     4650       18       18       18        0     1052     1056     1062     1057     2450     2462     2464     2451
     4651       18       18       18        0     1053     1058     1056     1052     2452     2461     2450     2448
     4652       18       18       18        0     1086     1063     1058     1053     2483     2467     2452     2454
     4653       18       18       18        0     1054     1055     1059     1085     2455     2458     2471     2456
     4654       18       18       18        0     1085     1059     1064     1060     2471     2469     2472     2474
     4655       18       18       18        0     1055     1067     1066     1059     2460     2489     2470     2458
     4656       18       18       18        0     1061     1068     1067     1055     2476     2491     2460     2459
     4657       18       18       18        0     1058     1077     1076     1056     2468     2504     2463     2461
     4658       18       18       18        0     1056     1076     1075     1062     2463     2503     2480     2462
     4659       18       18       18        0     1087     1071     1070     1061     2499     2497     2477     2478
     4660       18       18       18        0     1062     1073     1072     1057     2479     2500     2465     2464
     4661       18       18       18        0     1057     1072     1071     1087     2465     2498     2499     2466
     4662       18       18       18        0     1063     1078     1077     1058     2481     2505     2468     2467
     4663       18       18       18        0     1059     1066     1065     1064     2470     2486     2484     2469
     4664       18       18       18        0     1086     1081     1080     1063     2510     2508     2482     2483
     4665       18       18       18        0     1064     1083     1082     1060     2485     2511     2473     2472
! ... 30 like lines cut
eblock,10,,,49
(15i9)
     4695       17       17       17        0     1054     1052     1057     1087     2449     2451     2466     2457
     4696       17       17       17        0     1087     1061     1055     1054     2478     2459     2455     2457
     4697       17       17       17        0     1054     1085     1053     1052     2456     2453     2448     2449
     4698       17       17       17        0     1085     1060     1086     1053     2474     2475     2454     2453
     4699       17       17       17        0     1052     1056     1062     1057     2450     2462     2464     2451
     4700       17       17       17        0     1053     1058     1056     1052     2452     2461     2450     2448
     4701       17       17       17        0     1086     1063     1058     1053     2483     2467     2452     2454
     4702       17       17       17        0     1054     1055     1059     1085     2455     2458     2471     2456
     4703       17       17       17        0     1085     1059     1064     1060     2471     2469     2472     2474
     4704       17       17       17        0     1055     1067     1066     1059     2460     2489     2470     2458
     4705       17       17       17        0     1061     1068     1067     1055     2476     2491     2460     2459
     4706       17       17       17        0     1058     1077     1076     1056     2468     2504     2463     2461
     4707       17       17       17        0     1056     1076     1075     1062     2463     2503     2480     2462
     4708       17       17       17        0     1087     1071     1070     1061     2499     2497     2477     2478
     4709       17       17       17        0     1062     1073     1072     1057     2479     2500     2465     2464
     4710       17       17       17        0     1057     1072     1071     1087     2465     2498     2499     2466
     4711       17       17       17        0     1063     1078     1077     1058     2481     2505     2468     2467
     4712       17       17       17        0     1059     1066     1065     1064     2470     2486     2484     2469
     4713       17       17       17        0     1086     1081     1080     1063     2510     2508     2482     2483
     4714       17       17       17        0     1064     1083     1082     1060     2485     2511     2473     2472
! ... 30 like lines cut
eblock,10,,,16
(15i9)
     4744       17       18       17        0     4827     4820     4813     4813    12351    12334     4813    12335
     4745       17       18       17        0     4825     3988     4822     4822    10407    10406     4822    12356
     4746       17       18       17        0     4822     4821     4823     4825    12353    12354    12358    12356
     4747       17       18       17        0     4820     4827     4823     4821    12351    12359    12354    12350
     4748       17       18       17        0     4821     4824     4828     4820    12355    12362    12352    12350
     4749       17       18       17        0     4820     4828     4812     4813    12352    12333    12332    12334
     4750       17       18       17        0     4822     4826     4824     4821    12357    12361    12355    12353
     4751       17       18       17        0     3988     3989     4826     4822    10404    10409    12357    10406
     4752       17       18       17        0    16348    16343    16319    16319    24309    24262    16319    24263
     4753       17       18       17        0    16349    15490    16345    16345    22325    22324    16345    24314
     4754       17       18       17        0    16345    16344    16346    16349    24311    24312    24317    24314
     4755       17       18       17        0    16343    16348    16346    16344    24309    24316    24312    24308
     4756       17       18       17        0    16343    16350    16318    16319    24310    24261    24260    24262
     4757       17       18       17        0    16344    16347    16350    16343    24313    24319    24310    24308
     4758       17       18       17        0    16345    16351    16347    16344    24315    24320    24313    24311
     4759       17       18       17        0    15490    15491    16351    16345    22322    22327    24315    22324
-1
eblock,10,,,16
(15i9)
     4760       18       17       18        0     4827     4820     4813     4813    12351    12334     4813    12335
     4761       18       17       18        0     4825     3988     4822     4822    10407    10406     4822    12356
     4762       18       17       18        0     4822     4821     4823     4825    12353    12354    12358    12356
     4763       18       17       18        0     4820     4827     4823     4821    12351    12359    12354    12350
     4764       18       17       18        0     4821     4824     4828     4820    12355    12362    12352    12350
     4765       18       17       18        0     4820     4828     4812     4813    12352    12333    12332    12334
     4766       18       17       18        0     4822     4826     4824     4821    12357    12361    12355    12353
     4767       18       17       18        0     3988     3989     4826     4822    10404    10409    12357    10406
     4768       18       17       18        0    16348    16343    16319    16319    24309    24262    16319    24263
     4769       18       17       18        0    16349    15490    16345    16345    22325    22324    16345    24314
     4770       18       17       18        0    16345    16344    16346    16349    24311    24312    24317    24314
     4771       18       17       18        0    16343    16348    16346    16344    24309    24316    24312    24308
     4772       18       17       18        0    16343    16350    16318    16319    24310    24261    24260    24262
     4773       18       17       18        0    16344    16347    16350    16343    24313    24319    24310    24308
     4774       18       17       18        0    16345    16351    16347    16344    24315    24320    24313    24311
     4775       18       17       18        0    15490    15491    16351    16345    22322    22327    24315    22324
-1
esel,s,type,,17
cm,contactElems92,elem
cmsel,a,_AllContacts,elem
cm,_AllContacts,elem
cmsel,s,contactElems92,elem
cmdele,contactElems92
keyo,cid,8,2               ! auto create asymmetric contact (from Program Controlled setting)
keyo,cid,10,0              ! adjust contact stiffness each NR iteration (from Program Controlled setting)
keyo,cid,12,0              ! standard contact
keyo,cid,2,0               ! augmented Lagrange (from Program Controlled setting)
keyo,cid,4,0               ! on Gauss point (from Program Controlled setting)
keyo,cid,9,0               ! use real geometry with stepped effects
keyo,cid,7,0               ! No Prediction
rmod,tid,3,1.         ! FKN
rmod,tid,5,0.          ! ICONT
rmod,tid,6,0.        ! PINB
rmod,tid,10,0.        ! CNOF
rmod,tid,12,0.        ! FKT
rmod,tid,36,92         ! WB DSID
rmod,cid,3,1.      ! FKN
rmod,cid,5,0.          ! ICONT
rmod,cid,6,0.        ! PINB
rmod,cid,10,0.        ! CNOF
rmod,cid,12,0.        ! FKT
rmod,cid,36,92         ! WB DSID
nsel,all
esel,all
/wb,contact,end            !  done creating contacts
/golist
/wb,load,start             !  starting to send loads
/com,********* Frictionless Supports X *********
CMBLOCK,_FRICSUX,NODE,     9290
(8i10)
        19        20        21        22        23        24        25        26
        27        28        29        30        31        32        33        34
        35        36        37        38        39        40        41        42
        43        44        45        46        47        48        49        50
       317       318       319       320       321       322       323       324
       325       326       328       330       332       334       336       337
       339       341       342       344       346       348       350       352
       355       356       357       358       359       360       361       362
       363       364       366       368       370       372       374       375
       377       379       380       382       384       385       388       390
       830       831       832       833       834       835       836       837
       838       839       840       841       842       843       844       845
       846       847       848       849       850       851       852       853
       854       855       856       857       858       859       860       861
       862       863       864       865       866       867       868       869
       870       871       872       873       874       875       876       877
       878       879       880       881       882       883       884       885
       886       887       888       889       890       891       892       893
       894       895       896       897       898       899       900       901
       902       903       904       905       906       907       908       909
! ... 1142 like lines cut
cmsel,s,_FRICSUX
d,all,ux,0
nsel,all
/com,********* Frictionless Supports Z *********
CMBLOCK,_FRICSUZ,NODE,       29
(8i10)
      3431      3973      3974      4265      4806      4807      5385      5386
      5927      5928      5929      5930      9286      9287     10371     10372
     10373     11232     11233     12316     12317     12319     13211     13212
     13213     14024     14025     14026     14027
cmsel,s,_FRICSUZ
d,all,uz,0
nsel,all
/com,*********** Node Rotations ***********
nmod,3160,,,,-0.900000000000002,0.,0.
nmod,3161,,,,-0.900000000000002,0.,0.
nmod,3162,,,,-0.900000000000002,0.,0.
nmod,3163,,,,-0.900000000000002,0.,0.
nmod,3164,,,,-0.900000000000002,0.,0.
nmod,3165,,,,-0.900000000000002,0.,0.
nmod,3166,,,,-0.900000000000002,0.,0.
nmod,3167,,,,-0.900000000000002,0.,0.
nmod,3168,,,,-0.900000000000002,0.,0.
nmod,3169,,,,-0.900000000000002,0.,0.
nmod,3170,,,,-0.900000000000002,0.,0.
nmod,3171,,,,-0.900000000000002,0.,0.
nmod,3172,,,,-0.900000000000002,0.,0.
nmod,3173,,,,-0.900000000000002,0.,0.
nmod,3174,,,,-0.900000000000002,0.,0.
nmod,3175,,,,-0.900000000000002,0.,0.
nmod,3176,,,,-0.900000000000002,0.,0.
nmod,3177,,,,-0.900000000000002,0.,0.
nmod,3178,,,,-0.900000000000002,0.,0.
nmod,3179,,,,-0.900000000000002,0.,0.
! ... 4404 like lines cut
/com,*********** Define Pressure Using Surface Effect Elements ***********
et,19,154
eblock,10,,,836
(15i9)
     4776       19       19       19        0    17511    17509    17510    17512    26090    26089    26091    26092
     4777       19       19       19        0    17512    16342    16341    17511    24307    24305    24306    26092
     4778       19       19       19        0    17511    16310    16307    17509    24240    24234    24235    26090
     4779       19       19       19        0    16341    16309    16310    17511    24239    24237    24240    24306
     4780       19       19       19        0    17512    15486    15477    16342    22316    22300    22301    24307
     4781       19       19       19        0    17510    15485    15486    17512    22315    22314    22316    26091
     4782       19       19       19        0    16337    16314    16309    16341    24249    24238    24239    24300
     4783       19       19       19        0    16341    16342    16338    16337    24305    24301    24299    24300
     4784       19       19       19        0    16342    15477    15478    16338    22301    22299    22302    24301
     4785       19       19       19        0    16336    16313    16314    16337    24248    24246    24249    24297
     4786       19       19       19        0    16337    16338    16335    16336    24299    24295    24294    24297
     4787       19       19       19        0    16338    15478    15476    16335    22302    22297    22298    24295
     4788       19       19       19        0    16335    15476    15474    16340    22298    22292    22294    24296
     4789       19       19       19        0    16340    16339    16336    16335    24302    24298    24294    24296
     4790       19       19       19        0    16339    16311    16313    16336    24243    24241    24248    24298
     4791       19       19       19        0    17508    17507    16968    16968    26088    25279    16968    25280
     4792       19       19       19        0    17507    17506    17505    16968    26087    26086    25278    25279
     4793       19       19       19        0    16968    17505    17504    16969    25278    26085    25282    25277
     4794       19       19       19        0    16968    16304    16305    17508    24229    24228    24230    25280
     4795       19       19       19        0    16969    16303    16304    16968    24227    24226    24229    25277
! ... 817 like lines cut
esel,s,type,,19
esel,all

*DIM,_loadvari299,TABLE,2,4,1,Z,TIME
! Time Values
_loadvari299(0,1,1) = 0.
_loadvari299(0,2,1) = 1.
_loadvari299(0,3,1) = 2.
_loadvari299(0,4,1) = 3.
! Z values
_loadvari299(1,0,1) = 0.
_loadvari299(2,0,1) = 160.
! Load values
_loadvari299(1,1,1) = 0.
_loadvari299(1,2,1) = 0.
_loadvari299(1,3,1) = 12.1699999983526
_loadvari299(1,4,1) = 12.1699999983526
_loadvari299(2,1,1) = 0.
_loadvari299(2,2,1) = 0.
_loadvari299(2,3,1) = 47.7199999935404
_loadvari299(2,4,1) = 47.7199999935404

/com,*********** Define Force Using Surface Effect Elements ***********
local,14,0,0.,0.,0.,-0.,0.,0.
csys,0
et,20,154
eblock,10,,,6
(15i9)
     5612       20       20       20       14    17511    17509    17510    17512    26090    26089    26091    26092
     5613       20       20       20       14    17512    16342    16341    17511    24307    24305    24306    26092
     5614       20       20       20       14    17511    16310    16307    17509    24240    24234    24235    26090
     5615       20       20       20       14    16341    16309    16310    17511    24239    24237    24240    24306
     5616       20       20       20       14    17512    15486    15477    16342    22316    22300    22301    24307
     5617       20       20       20       14    17510    15485    15486    17512    22315    22314    22316    26091
-1
esel,s,type,,20
keyop,20,2,1                ! Apply load in local coordinate system
keyop,20,7,1                ! Use original area so load is constant in large deformation
keyop,20,11,2               ! Use real and not project area
esel,all

*DIM,_loadvari301x,TABLE,4,1,1,TIME,
! Time values
_loadvari301x(1,0,1) = 0.
_loadvari301x(2,0,1) = 1.
_loadvari301x(3,0,1) = 2.
_loadvari301x(4,0,1) = 3.
! Load values
_loadvari301x(1,1,1) = 0.
_loadvari301x(2,1,1) = 0.
_loadvari301x(3,1,1) = 0.
_loadvari301x(4,1,1) = 0.


*DIM,_loadvari301y,TABLE,4,1,1,TIME,
! Time values
_loadvari301y(1,0,1) = 0.
_loadvari301y(2,0,1) = 1.
_loadvari301y(3,0,1) = 2.
_loadvari301y(4,0,1) = 3.
! Load values
_loadvari301y(1,1,1) = 0.
_loadvari301y(2,1,1) = 0.
_loadvari301y(3,1,1) = 0.
_loadvari301y(4,1,1) = 0.


*DIM,_loadvari301z,TABLE,4,1,1,TIME,
! Time values
_loadvari301z(1,0,1) = 0.
_loadvari301z(2,0,1) = 1.
_loadvari301z(3,0,1) = 2.
_loadvari301z(4,0,1) = 3.
! Load values
_loadvari301z(1,1,1) = -0.
_loadvari301z(2,1,1) = -0.
_loadvari301z(3,1,1) = -3009.50518328434
_loadvari301z(4,1,1) = -3009.50518328434

/com,*********** Define Force Using Surface Effect Elements ***********
local,15,0,0.,0.,0.,-0.,0.,0.
csys,0
et,21,154
eblock,10,,,6
(15i9)
     5618       21       21       21       15     4829     4833     4266     4815    12370    11236    11235    12338
     5619       21       21       21       15     4815     4814     4831     4829    12336    12337    12369    12338
     5620       21       21       21       15     4831     4832     4830     4829    12373    12371    12368    12369
     5621       21       21       21       15     4830     4834     4833     4829    12372    12376    12370    12368
     5622       21       21       21       15     4832     3987     3986     4830    10403    10401    10402    12371
     5623       21       21       21       15     3986     3432     4834     4830     9289     9290    12372    10402
-1
esel,s,type,,21
keyop,21,2,1                ! Apply load in local coordinate system
keyop,21,7,1                ! Use original area so load is constant in large deformation
keyop,21,11,2               ! Use real and not project area
esel,all

*DIM,_loadvari303x,TABLE,4,1,1,TIME,
! Time values
_loadvari303x(1,0,1) = 0.
_loadvari303x(2,0,1) = 1.
_loadvari303x(3,0,1) = 2.
_loadvari303x(4,0,1) = 3.
! Load values
_loadvari303x(1,1,1) = 0.
_loadvari303x(2,1,1) = 0.
_loadvari303x(3,1,1) = 0.
_loadvari303x(4,1,1) = 0.


*DIM,_loadvari303y,TABLE,4,1,1,TIME,
! Time values
_loadvari303y(1,0,1) = 0.
_loadvari303y(2,0,1) = 1.
_loadvari303y(3,0,1) = 2.
_loadvari303y(4,0,1) = 3.
! Load values
_loadvari303y(1,1,1) = 0.
_loadvari303y(2,1,1) = 0.
_loadvari303y(3,1,1) = 0.
_loadvari303y(4,1,1) = 0.


*DIM,_loadvari303z,TABLE,4,1,1,TIME,
! Time values
_loadvari303z(1,0,1) = 0.
_loadvari303z(2,0,1) = 1.
_loadvari303z(3,0,1) = 2.
_loadvari303z(4,0,1) = 3.
! Load values
_loadvari303z(1,1,1) = 0.
_loadvari303z(2,1,1) = 0.
_loadvari303z(3,1,1) = 2016.05730428827
_loadvari303z(4,1,1) = 2016.05730428827

n,26093,0.,0.,0.
/com,*********** Create Bolt Pretension "Bolt Pretension" ***********
*set,_pretnode,26093
_nbolt295 = 26093               ! that will be the pretension node number
local,11,1,0.,56.33,80.0000025531438,-90.,0.,180.
nmod,26093,0,0,0,,,,1      ! move pretension node to bolt center, don't update centroid
CMBLOCK,C0      ,NODE,      176
(8i10)
       911       914       917       918       927       928       929       930
       931       932       933       934       935       936       937       938
       991       993       995       997      1000      1001      1052      1053
      1054      1055      1056      1057      1058      1059      1060      1061
      1062      1063      1064      1065      1066      1067      1068      1069
      1070      1071      1072      1073      1074      1075      1076      1077
      1078      1079      1080      1081      1082      1083      1084      1085
      1086      1087      1088      1089      1090      1091      1092      1093
      2178      2180      2187      2189      2196      2197      2199      2200
      2215      2216      2217      2218      2219      2220      2221      2222
      2223      2224      2225      2226      2227      2228      2229      2230
      2231      2232      2233      2234      2235      2236      2336      2337
      2341      2342      2347      2348      2352      2353      2359      2360
      2362      2448      2449      2450      2451      2452      2453      2454
      2455      2456      2457      2458      2459      2460      2461      2462
      2463      2464      2465      2466      2467      2468      2469      2470
      2471      2472      2473      2474      2475      2476      2477      2478
      2479      2480      2481      2482      2483      2484      2485      2486
      2487      2488      2489      2490      2491      2492      2493      2494
      2495      2496      2497      2498      2499      2500      2501      2502
      2503      2504      2505      2506      2507      2508      2509      2510
      2511      2512      2513      2514      2516      2518      2520      2522

cmsel,s,C0
*get,_maxx,node,0,mxloc,x  ! get the radius of the cylinder
nsel,all                   ! select all nodes back because *get,CENTRX needs it
*set,_tid,22
et,_tid,179
type,_tid
real,_tid
mat,_tid
esel,s,mat,,5
*get,_necurr,elem,,count    ! get number of elements on body
_ecurr=0                    ! seed value
*do,_i,1,_necurr
  _ecurr = ELNEXT(_ecurr)
  *get,_radius,elem,_ecurr,cent,x
  *if,_radius,gt,_maxx,then
    esel,u,elem,,_ecurr     ! unselect element since not inside cylinder radius
  *endif
*enddo
*set,_wbpstol,1.53006965481521e-003
*get,_echck1,elem,,num,max    ! make sure psmesh command was successful 
psmesh,_tid,,26093,all,,11,z,0.0,,_wbpstol,_tid,cmebolt,cmnbolt
*get,_echck2,elem,,num,max    ! make sure psmesh command was successful 
*if,_echck1,eq,_echck2,then
  *msg,error
  THE PRETENSION LOAD WAS NOT ABLE TO BE APPLIED. & 
  MAKE SURE THE LOAD WAS NOT APPLIED TO A HOLE AND THAT &
  THE LOAD IS NOT APPLIED MORE THAN ONCE PER SURFACE
*endif
esel,all
nsel,all
csys,0
et,23,14             ! spring element type
/com,*********** Construct Weak Springs, Prototype 1 ***********
*set,_delta,4.07671503467848
type,23
mat,24
real,24
r,24,7.63116448669049e-003
nsel,all
*get,_nspr,ndmx
_nspr=_nspr+1
esel,s,mat,,1
nsle,s,active
*get,_minx,node,0,mnloc,x
*get,_miny,node,0,mnloc,y
*get,_minz,node,0,mnloc,z
*get,_maxx,node,0,mxloc,x
*get,_maxy,node,0,mxloc,y
*get,_maxz,node,0,mxloc,z
*dim,_ntets,arra,8
_ntets(1) = NODE(_minx,_miny,_minz)
_ntets(2) = NODE(_minx,_miny,_maxz)
_ntets(3) = NODE(_minx,_maxy,_minz)
_ntets(4) = NODE(_minx,_maxy,_maxz)
_ntets(5) = NODE(_maxx,_miny,_minz)
_ntets(6) = NODE(_maxx,_miny,_maxz)
_ntets(7) = NODE(_maxx,_maxy,_minz)
_ntets(8) = NODE(_maxx,_maxy,_maxz)
*do,_i,1,8
  n,_nspr,nx(_ntets(_i))+_delta,ny(_ntets(_i)),nz(_ntets(_i))
  e,_ntets(_i),_nspr
  d,_nspr,all
  _nspr=_nspr+1
  n,_nspr,nx(_ntets(_i)),ny(_ntets(_i))+_delta,nz(_ntets(_i))
  e,_ntets(_i),_nspr
  d,_nspr,all
  _nspr=_nspr+1
  n,_nspr,nx(_ntets(_i)),ny(_ntets(_i)),nz(_ntets(_i))+_delta
  e,_ntets(_i),_nspr
  d,_nspr,all
  _nspr=_nspr+1
*enddo
*set,_ntets
nsel,all
esel,all
/com,*********** Construct Weak Springs, Prototype 2 ***********
*set,_delta,4.06455504362747
type,23
mat,25
real,25
r,25,8.00090793807989e-003
nsel,all
*get,_nspr,ndmx
_nspr=_nspr+1
esel,s,mat,,3
nsle,s,active
*get,_minx,node,0,mnloc,x
*get,_miny,node,0,mnloc,y
*get,_minz,node,0,mnloc,z
*get,_maxx,node,0,mxloc,x
*get,_maxy,node,0,mxloc,y
*get,_maxz,node,0,mxloc,z
*dim,_ntets,arra,8
_ntets(1) = NODE(_minx,_miny,_minz)
_ntets(2) = NODE(_minx,_miny,_maxz)
_ntets(3) = NODE(_minx,_maxy,_minz)
_ntets(4) = NODE(_minx,_maxy,_maxz)
_ntets(5) = NODE(_maxx,_miny,_minz)
_ntets(6) = NODE(_maxx,_miny,_maxz)
_ntets(7) = NODE(_maxx,_maxy,_minz)
_ntets(8) = NODE(_maxx,_maxy,_maxz)
*do,_i,1,8
  n,_nspr,nx(_ntets(_i))+_delta,ny(_ntets(_i)),nz(_ntets(_i))
  e,_ntets(_i),_nspr
  d,_nspr,all
  _nspr=_nspr+1
  n,_nspr,nx(_ntets(_i)),ny(_ntets(_i))+_delta,nz(_ntets(_i))
  e,_ntets(_i),_nspr
  d,_nspr,all
  _nspr=_nspr+1
  n,_nspr,nx(_ntets(_i)),ny(_ntets(_i)),nz(_ntets(_i))+_delta
  e,_ntets(_i),_nspr
  d,_nspr,all
  _nspr=_nspr+1
*enddo
*set,_ntets
nsel,all
esel,all
/com,*********** Construct Weak Springs, Prototype 3 ***********
*set,_delta,7.65034827407604e-002
type,23
mat,26
real,26
r,26,1.54976643322993e-003
nsel,all
*get,_nspr,ndmx
_nspr=_nspr+1
esel,s,mat,,5
nsle,s,active
*get,_minx,node,0,mnloc,x
*get,_miny,node,0,mnloc,y
*get,_minz,node,0,mnloc,z
*get,_maxx,node,0,mxloc,x
*get,_maxy,node,0,mxloc,y
*get,_maxz,node,0,mxloc,z
*dim,_ntets,arra,8
_ntets(1) = NODE(_minx,_miny,_minz)
_ntets(2) = NODE(_minx,_miny,_maxz)
_ntets(3) = NODE(_minx,_maxy,_minz)
_ntets(4) = NODE(_minx,_maxy,_maxz)
_ntets(5) = NODE(_maxx,_miny,_minz)
_ntets(6) = NODE(_maxx,_miny,_maxz)
_ntets(7) = NODE(_maxx,_maxy,_minz)
_ntets(8) = NODE(_maxx,_maxy,_maxz)
*do,_i,1,8
  n,_nspr,nx(_ntets(_i))+_delta,ny(_ntets(_i)),nz(_ntets(_i))
  e,_ntets(_i),_nspr
  d,_nspr,all
  _nspr=_nspr+1
  n,_nspr,nx(_ntets(_i)),ny(_ntets(_i))+_delta,nz(_ntets(_i))
  e,_ntets(_i),_nspr
  d,_nspr,all
  _nspr=_nspr+1
  n,_nspr,nx(_ntets(_i)),ny(_ntets(_i)),nz(_ntets(_i))+_delta
  e,_ntets(_i),_nspr
  d,_nspr,all
  _nspr=_nspr+1
*enddo
*set,_ntets
nsel,all
esel,all
/com,*********** Construct Weak Springs, Prototype 4 ***********
*set,_delta,3.13000126763641e-002
type,23
mat,27
real,27
r,27,1.41887793125388e-003
nsel,all
*get,_nspr,ndmx
_nspr=_nspr+1
esel,s,mat,,7
nsle,s,active
*get,_minx,node,0,mnloc,x
*get,_miny,node,0,mnloc,y
*get,_minz,node,0,mnloc,z
*get,_maxx,node,0,mxloc,x
*get,_maxy,node,0,mxloc,y
*get,_maxz,node,0,mxloc,z
*dim,_ntets,arra,8
_ntets(1) = NODE(_minx,_miny,_minz)
_ntets(2) = NODE(_minx,_miny,_maxz)
_ntets(3) = NODE(_minx,_maxy,_minz)
_ntets(4) = NODE(_minx,_maxy,_maxz)
_ntets(5) = NODE(_maxx,_miny,_minz)
_ntets(6) = NODE(_maxx,_miny,_maxz)
_ntets(7) = NODE(_maxx,_maxy,_minz)
_ntets(8) = NODE(_maxx,_maxy,_maxz)
*do,_i,1,8
  n,_nspr,nx(_ntets(_i))+_delta,ny(_ntets(_i)),nz(_ntets(_i))
  e,_ntets(_i),_nspr
  d,_nspr,all
  _nspr=_nspr+1
  n,_nspr,nx(_ntets(_i)),ny(_ntets(_i))+_delta,nz(_ntets(_i))
  e,_ntets(_i),_nspr
  d,_nspr,all
  _nspr=_nspr+1
  n,_nspr,nx(_ntets(_i)),ny(_ntets(_i)),nz(_ntets(_i))+_delta
  e,_ntets(_i),_nspr
  d,_nspr,all
  _nspr=_nspr+1
*enddo
*set,_ntets
nsel,all
esel,all
/com,*********** Define Body Force Temperature ***********
esel,none
esel,a,mat,,1
esel,a,mat,,3
esel,a,mat,,5
esel,a,mat,,7
cm,_CM293,elem
esel,all

*DIM,_loadvari293,TABLE,4,1,1,TIME,
! Time values
_loadvari293(1,0,1) = 0.
_loadvari293(2,0,1) = 1.
_loadvari293(3,0,1) = 2.
_loadvari293(4,0,1) = 3.
! Load values
_loadvari293(1,1,1) = 70.
_loadvari293(2,1,1) = 70.
_loadvari293(3,1,1) = 70.
_loadvari293(4,1,1) = 700.

esel,all
/gst,on,on
fini
*get,_numnode,node,0,count
*get,_numelem,elem,0,count
*get, _MAXELEMNUM, elem, 0, NUM, MAX
*get, _MAXNODENUM, node, 0, NUM, MAX
*get, _MAXELEMTYPE, etyp, 0, NUM, MAX
*get, _MAXREALCONST, real, 0, NUM, MAX
/go
/wb,load,end               !  done creating loads
/com,--- Number of total nodes = %_numnode%
/com,--- Number of contact elements = 1394
/com,--- Number of spring elements = 96
/com,--- Number of bearing elements = 0
/com,--- Number of solid elements = 4229
/com,--- Number of condensed parts = 0
/com,--- Number of total elements = %_numelem%
*get,_wallbsol,active,,time,wall
/com,****************************************************************************
/com,*************************    SOLUTION       ********************************
/com,****************************************************************************
/solu
antype,0                   ! static analysis
eqsl,sparse,,,,,1
cntr,print,1               ! print out contact info and also make no initial contact an error
dmpoption,emat,no             ! Don't combine emat file for DANSYS
dmpoption,esav,no             ! Don't combine esav file for DANSYS
nldiag,cont,iter           ! print out contact info each equilibrium iteration
rescontrol,define,last,last,,dele	   ! Program Controlled
/com,****************************************************
/com,******************* SOLVE FOR LS 1 OF 3 ****************
esel,s,type,,19
nsle
sf,all,pres,%_loadvari299%
nsel,all
esel,all
esel,s,type,,20
nsle
sfe,all,1,pres,1,%_loadvari301x%
sfe,all,2,pres,1,%_loadvari301y%
sfe,all,3,pres,1,%_loadvari301z%
esel,s,type,,21
nsle
sfe,all,1,pres,1,%_loadvari303x%
sfe,all,2,pres,1,%_loadvari303y%
sfe,all,3,pres,1,%_loadvari303z%
nsel,all
esel,all
esel,all
/nopr
/gopr
cmsel,s,_CM293
nsle
bf,all,temp,%_loadvari293%
nsel,all
esel,all
f,26093,fx,1159.99999980337
autots,on                  ! Workbench Program Controlled automatic time stepping
nsub,5,20,1                ! due to presence of high frictional contact
time,1.
outres,erase
outres,all,none
outres,nsol,last
outres,rsol,last
outres,nload,last
outres,strs,last
outres,epel,last
outres,eppl,last
outres,epth,last
outres,misc,last,_AllContacts
stabilize,off                   ! Stabilization turned OFF by user
! *********** WB SOLVE COMMAND ***********
! check interactive state
*get,ANSINTER_,active,,int
*if,ANSINTER_,ne,0,then
/eof
*endif
solve
/com *************** Write FE CONNECTORS ********* 
CEWRITE,file,ce,,INTE
/com,****************************************************
/com,*************** FINISHED SOLVE FOR LS 1 *************
/com,****************************************************
/com,******************* SOLVE FOR LS 2 OF 3 ****************
esel,all
/nopr
/gopr
fdel,26093,all
d,26093,ux,%_FIX%
autots,on                  ! Workbench Program Controlled automatic time stepping
nsub,5,20,1                ! due to presence of high frictional contact
time,2.
outres,erase
outres,all,none
outres,nsol,all
outres,rsol,all
outres,nload,all
outres,strs,all
outres,epel,all
outres,eppl,all
outres,epth,all
outres,misc,all,_AllContacts
stabilize,off                   ! Stabilization turned OFF by user
solve
/com,****************************************************
/com,*************** FINISHED SOLVE FOR LS 2 *************
/com,****************************************************
/com,******************* SOLVE FOR LS 3 OF 3 ****************
esel,all
/nopr
/gopr
fdel,26093,all
d,26093,ux,%_FIX%
autots,on                  ! Workbench Program Controlled automatic time stepping
nsub,5,20,1                ! due to presence of high frictional contact
time,3.
outres,erase
outres,all,none
outres,nsol,all
outres,rsol,all
outres,nload,all
outres,strs,all
outres,epel,all
outres,eppl,all
outres,epth,all
outres,misc,all,_AllContacts
stabilize,off                   ! Stabilization turned OFF by user
solve
/com,****************************************************
/com,*************** FINISHED SOLVE FOR LS 3 *************
*get,_wallasol,active,,time,wall
/nopr
*get,_numnode,node,0,count
*get,_numelem,elem,0,count
*get, _MAXELEMNUM, elem, 0, NUM, MAX
*get, _MAXNODENUM, node, 0, NUM, MAX,,,INTERNAL
*get, _MAXELEMTYPE, etyp, 0, NUM, MAX
*get, _MAXREALCONST, real, 0, NUM, MAX
/gopr
/post1
xmlo,ENCODING,ISO-8859-1
xmlo,parm
/xml,parm,xml
fini
/gopr
*get,_walldone,active,,time,wall
_preptime=(_wallbsol-_wallstrt)*3600
_solvtime=(_wallasol-_wallbsol)*3600
_posttime=(_walldone-_wallasol)*3600
_totaltim=(_walldone-_wallstrt)*3600
/wb,file,end               ! done with WB generated input
