
 ANSYS Academic Teaching Introductory              


 *------------------------------------------------------------------*
 |                                                                  |
 |   W E L C O M E   T O   T H E   A N S Y S (R)  P R O G R A M     |
 |                                                                  |
 *------------------------------------------------------------------*




 ***************************************************************
 *            ANSYS Release 18.2     LEGAL NOTICES             *
 ***************************************************************
 *                                                             *
 * Copyright 2017 SAS IP, Inc.  All rights reserved.           *
 * Unauthorized use, distribution or duplication is            *
 * prohibited.                                                 *
 *                                                             *
 * Ansys is a registered trademark of ANSYS, Inc. or its       *
 * subsidiaries in the United States or other countries.       *
 * See the ANSYS, Inc. online documentation or the ANSYS, Inc. *
 * documentation CD or online help for the complete Legal      *
 * Notice.                                                     *
 *                                                             *
 ***************************************************************
 *                                                             *
 * THIS ANSYS SOFTWARE PRODUCT AND PROGRAM DOCUMENTATION       *
 * INCLUDE TRADE SECRETS AND CONFIDENTIAL AND PROPRIETARY      *
 * PRODUCTS OF ANSYS, INC., ITS SUBSIDIARIES, OR LICENSORS.    *
 * The software products and documentation are furnished by    *
 * ANSYS, Inc. or its subsidiaries under a software license    *
 * agreement that contains provisions concerning               *
 * non-disclosure, copying, length and nature of use,          *
 * compliance with exporting laws, warranties, disclaimers,    *
 * limitations of liability, and remedies, and other           *
 * provisions.  The software products and documentation may be *
 * used, disclosed, transferred, or copied only in accordance  *
 * with the terms and conditions of that software license      *
 * agreement.                                                  *
 *                                                             *
 * ANSYS, Inc. is a UL registered                              *
 * ISO 9001:2008 company.                                      *
 *                                                             *
 ***************************************************************
 *                                                             *
 * This product is subject to U.S. laws governing export and   *
 * re-export.                                                  *
 *                                                             *
 * For U.S. Government users, except as specifically granted   *
 * by the ANSYS, Inc. software license agreement, the use,     *
 * duplication, or disclosure by the United States Government  *
 * is subject to restrictions stated in the ANSYS, Inc.        *
 * software license agreement and FAR 12.212 (for non-DOD      *
 * licenses).                                                  *
 *                                                             *
 ***************************************************************

 Release 18.2
     
 Point Releases and Patches installed:   
     
 ANSYS Academic Student Release 18.2 


          *****  ANSYS COMMAND LINE ARGUMENTS  *****
  BATCH MODE REQUESTED (-b)    = NOLIST
  INPUT FILE COPY MODE (-c)    = COPY
  DISTRIBUTED MEMORY PARALLEL REQUESTED
       2 PARALLEL PROCESSES REQUESTED WITH SINGLE THREAD PER PROCESS
    TOTAL OF     2 CORES REQUESTED
  DESIGNXPLORER REQUESTED
  MPI OPTION                   = INTELMPI
  INPUT FILE NAME              = C:\Users\Saraswathi Andappan\Desktop\ANSYS Cornell\_ProjectScratch\ScrD813\dummy.dat
  OUTPUT FILE NAME             = C:\Users\Saraswathi Andappan\Desktop\ANSYS Cornell\_ProjectScratch\ScrD813\solve.out
  START-UP FILE MODE           = NOREAD
  STOP FILE MODE               = NOREAD

 RELEASE= Release 18.2         BUILD= 18.2      UP20170726   VERSION=WINDOWS x64 
 CURRENT JOBNAME=file0  19:33:04  JUN 04, 2018 CP=      0.188


 PARAMETER _DS_PROGRESS =     999.0000000    

 /INPUT FILE= ds.dat  LINE=       0



 *** NOTE ***                            CP =       0.297   TIME= 19:33:04
 The /CONFIG,NOELDB command is not valid in a Distributed ANSYS          
 solution.  Command is ignored.                                          

 *GET  _WALLSTRT  FROM  ACTI  ITEM=TIME WALL  VALUE=  19.5511111    

 TITLE= 
 Bolted Nozzle Flange--Static Structural (B5)                                  


 SET PARAMETER DIMENSIONS ON  _WB_PROJECTSCRATCH_DIR
  TYPE=STRI  DIMENSIONS=      248        1        1

 PARAMETER _WB_PROJECTSCRATCH_DIR(1) = C:\Users\Saraswathi Andappan\Desktop\ANSYS Cornell\_ProjectScratch\ScrD813\

 SET PARAMETER DIMENSIONS ON  _WB_SOLVERFILES_DIR
  TYPE=STRI  DIMENSIONS=      248        1        1

 PARAMETER _WB_SOLVERFILES_DIR(1) = C:\Users\Saraswathi Andappan\Desktop\ANSYS Cornell\Bolted Nozzle Flange_files\dp0\SYS-1\MECH\

 SET PARAMETER DIMENSIONS ON  _WB_USERFILES_DIR
  TYPE=STRI  DIMENSIONS=      248        1        1

 PARAMETER _WB_USERFILES_DIR(1) = C:\Users\Saraswathi Andappan\Desktop\ANSYS Cornell\Bolted Nozzle Flange_files\user_files\
 --- Data in consistent BIN units. See Solving Units in the help system for more

 U.S. CUSTOMARY INCH UNITS SPECIFIED FOR INTERNAL    
  LENGTH      = INCHES (IN)
  MASS        = LBF-S**2/IN 
  TIME        = SECONDS (SEC)  
  TEMPERATURE = FAHRENHEIT
  TOFFSET     = 460.0
  FORCE       = LBF
  HEAT        = IN-LBF
  PRESSURE    = PSI (LBF/IN**2)
  ENERGY      = IN-LBF
  POWER       = IN-LBF/SEC

 INPUT  UNITS ARE ALSO SET TO BIN 

 *** ANSYS - ENGINEERING ANALYSIS SYSTEM  RELEASE Release 18.2     18.2     ***
 DISTRIBUTED ANSYS Academic Teaching Introductory              

 01055371  VERSION=WINDOWS x64   19:33:04  JUN 04, 2018 CP=      0.312

 Bolted Nozzle Flange--Static Structural (B5)                                  



          ***** ANSYS ANALYSIS DEFINITION (PREP7) *****
 *********** Nodes for the whole assembly ***********
 *********** Elements for Body 1 "MidNozzle" ***********
 *********** Elements for Body 3 "LowerNozzle" ***********
 *********** Elements for Body 5 "Bolt" ***********
 *********** Elements for Body 7 "Nut" ***********
 *********** Send User Defined Coordinate System(s) ***********
 *********** Set Reference Temperature ***********
 *********** Send Materials ***********
 *********** Create Contact "Bonded - Bolt To Nut" ***********
             Real Constant Set For Above Contact Is 10 & 9
 *********** Create Contact "Frictional - LowerNozzle To MidNozzle" ***********
             Real Constant Set For Above Contact Is 12 & 11
 *********** Create Contact "Frictionless - MidNozzle To Bolt" ***********
             Real Constant Set For Above Contact Is 14 & 13
 *********** Create Contact "Frictionless - LowerNozzle To Nut" ***********
             Real Constant Set For Above Contact Is 16 & 15
 *********** Create Contact "Frictionless - Bolt To Multiple" ***********
             Real Constant Set For Above Contact Is 18 & 17
 ********* Frictionless Supports X *********
 ********* Frictionless Supports Z *********
 *********** Node Rotations ***********
 *********** Define Pressure Using Surface Effect Elements ***********
 *********** Define Force Using Surface Effect Elements ***********
 *********** Define Force Using Surface Effect Elements ***********
 *********** Create Bolt Pretension "Bolt Pretension" ***********
  CREATE COMPONENT CMEBOLT  FROM PRETENSION ELEMENTS
  CREATE COMPONENT CMNBOLT  FROM PRETENSION NODES
 *********** Construct Weak Springs, Prototype 1 ***********
 *********** Construct Weak Springs, Prototype 2 ***********
 *********** Construct Weak Springs, Prototype 3 ***********
 *********** Construct Weak Springs, Prototype 4 ***********
 *********** Define Body Force Temperature ***********


 ***** ROUTINE COMPLETED *****  CP =         0.719


 --- Number of total nodes = 26236
 --- Number of contact elements = 1394
 --- Number of spring elements = 96
 --- Number of bearing elements = 0
 --- Number of solid elements = 4229
 --- Number of condensed parts = 0
 --- Number of total elements = 5766

 *GET  _WALLBSOL  FROM  ACTI  ITEM=TIME WALL  VALUE=  19.5513889    
 ****************************************************************************
 *************************    SOLUTION       ********************************
 ****************************************************************************

 *****  ANSYS SOLUTION ROUTINE  *****


 PERFORM A STATIC ANALYSIS
  THIS WILL BE A NEW ANALYSIS

 USE SPARSE MATRIX DIRECT SOLVER

 CONTACT INFORMATION PRINTOUT LEVEL       1

 DO NOT COMBINE ELEMENT MATRIX FILES (.emat) AFTER DISTRIBUTED PARALLEL SOLUTION

 DO NOT COMBINE ELEMENT SAVE DATA FILES (.esav) AFTER DISTRIBUTED PARALLEL SOLUTION

 NLDIAG: Nonlinear diagnostics CONT option is set to ON. 
         Writing frequency : each ITERATION.

 DEFINE RESTART CONTROL FOR LOADSTEP LAST
 AT FREQUENCY OF LAST AND NUMBER FOR OVERWRITE IS    0

 DELETE RESTART FILES OF ENDSTEP
 ****************************************************
 ******************* SOLVE FOR LS 1 OF 3 ****************

 SELECT       FOR ITEM=TYPE COMPONENT=    
  IN RANGE        19 TO         19 STEP          1

        836  ELEMENTS (OF       5766  DEFINED) SELECTED BY  ESEL  COMMAND.

 SELECT      ALL NODES HAVING ANY ELEMENT IN ELEMENT SET.

     3078 NODES (OF    26236  DEFINED) SELECTED FROM
      836 SELECTED ELEMENTS BY NSLE COMMAND.

 GENERATE SURFACE LOAD PRES ON SURFACE DEFINED BY ALL SELECTED NODES
 SET ACCORDING TO TABLE PARAMETER = _LOADVARI299                    

 NUMBER OF PRES ELEMENT FACE LOADS STORED =        836

 ALL SELECT   FOR ITEM=NODE COMPONENT=    
  IN RANGE         1 TO      26236 STEP          1

      26236  NODES (OF      26236  DEFINED) SELECTED BY NSEL  COMMAND.

 ALL SELECT   FOR ITEM=ELEM COMPONENT=    
  IN RANGE         1 TO       5766 STEP          1

       5766  ELEMENTS (OF       5766  DEFINED) SELECTED BY  ESEL  COMMAND.

 SELECT       FOR ITEM=TYPE COMPONENT=    
  IN RANGE        20 TO         20 STEP          1

          6  ELEMENTS (OF       5766  DEFINED) SELECTED BY  ESEL  COMMAND.

 SELECT      ALL NODES HAVING ANY ELEMENT IN ELEMENT SET.

       29 NODES (OF    26236  DEFINED) SELECTED FROM
        6 SELECTED ELEMENTS BY NSLE COMMAND.

 SPECIFIED SURFACE LOAD PRES FOR ALL SELECTED ELEMENTS  LKEY =  1   KVAL = 1
      SET ACCORDING TO TABLE PARAMETER = _LOADVARI301X                   

 SPECIFIED SURFACE LOAD PRES FOR ALL SELECTED ELEMENTS  LKEY =  2   KVAL = 1
      SET ACCORDING TO TABLE PARAMETER = _LOADVARI301Y                   

 SPECIFIED SURFACE LOAD PRES FOR ALL SELECTED ELEMENTS  LKEY =  3   KVAL = 1
      SET ACCORDING TO TABLE PARAMETER = _LOADVARI301Z                   

 SELECT       FOR ITEM=TYPE COMPONENT=    
  IN RANGE        21 TO         21 STEP          1

          6  ELEMENTS (OF       5766  DEFINED) SELECTED BY  ESEL  COMMAND.

 SELECT      ALL NODES HAVING ANY ELEMENT IN ELEMENT SET.

       29 NODES (OF    26236  DEFINED) SELECTED FROM
        6 SELECTED ELEMENTS BY NSLE COMMAND.

 SPECIFIED SURFACE LOAD PRES FOR ALL SELECTED ELEMENTS  LKEY =  1   KVAL = 1
      SET ACCORDING TO TABLE PARAMETER = _LOADVARI303X                   

 SPECIFIED SURFACE LOAD PRES FOR ALL SELECTED ELEMENTS  LKEY =  2   KVAL = 1
      SET ACCORDING TO TABLE PARAMETER = _LOADVARI303Y                   

 SPECIFIED SURFACE LOAD PRES FOR ALL SELECTED ELEMENTS  LKEY =  3   KVAL = 1
      SET ACCORDING TO TABLE PARAMETER = _LOADVARI303Z                   

 ALL SELECT   FOR ITEM=NODE COMPONENT=    
  IN RANGE         1 TO      26236 STEP          1

      26236  NODES (OF      26236  DEFINED) SELECTED BY NSEL  COMMAND.

 ALL SELECT   FOR ITEM=ELEM COMPONENT=    
  IN RANGE         1 TO       5766 STEP          1

       5766  ELEMENTS (OF       5766  DEFINED) SELECTED BY  ESEL  COMMAND.

 ALL SELECT   FOR ITEM=ELEM COMPONENT=    
  IN RANGE         1 TO       5766 STEP          1

       5766  ELEMENTS (OF       5766  DEFINED) SELECTED BY  ESEL  COMMAND.

 PRINTOUT RESUMED BY /GOP

 SELECT      COMPONENT _CM293                          

 SELECT      ALL NODES HAVING ANY ELEMENT IN ELEMENT SET.

    26139 NODES (OF    26236  DEFINED) SELECTED FROM
     4229 SELECTED ELEMENTS BY NSLE COMMAND.

 SPECIFIED BODY FORCE TEMP FOR ALL SELECTED NODES SET ACCORDING TO
 TABLE PARAMETER = _LOADVARI293 

 ALL SELECT   FOR ITEM=NODE COMPONENT=    
  IN RANGE         1 TO      26236 STEP          1

      26236  NODES (OF      26236  DEFINED) SELECTED BY NSEL  COMMAND.

 ALL SELECT   FOR ITEM=ELEM COMPONENT=    
  IN RANGE         1 TO       5766 STEP          1

       5766  ELEMENTS (OF       5766  DEFINED) SELECTED BY  ESEL  COMMAND.

 SPECIFIED NODAL LOAD FX   FOR SELECTED NODES     26093 TO    26093 BY        1
  REAL=  1160.00000       IMAG=  0.00000000    

 USE AUTOMATIC TIME STEPPING THIS LOAD STEP

 USE       5 SUBSTEPS INITIALLY THIS LOAD STEP FOR ALL  DEGREES OF FREEDOM
 FOR AUTOMATIC TIME STEPPING:
   USE     20 SUBSTEPS AS A MAXIMUM
   USE      1 SUBSTEPS AS A MINIMUM

 TIME=  1.0000    

 ERASE THE CURRENT DATABASE OUTPUT CONTROL TABLE.


 WRITE ALL  ITEMS TO THE DATABASE WITH A FREQUENCY OF NONE
   FOR ALL APPLICABLE ENTITIES

 WRITE NSOL ITEMS TO THE DATABASE WITH A FREQUENCY OF LAST
   FOR ALL APPLICABLE ENTITIES

 WRITE RSOL ITEMS TO THE DATABASE WITH A FREQUENCY OF LAST
   FOR ALL APPLICABLE ENTITIES

 WRITE NLOA ITEMS TO THE DATABASE WITH A FREQUENCY OF LAST
   FOR ALL APPLICABLE ENTITIES

 WRITE STRS ITEMS TO THE DATABASE WITH A FREQUENCY OF LAST
   FOR ALL APPLICABLE ENTITIES

 WRITE EPEL ITEMS TO THE DATABASE WITH A FREQUENCY OF LAST
   FOR ALL APPLICABLE ENTITIES

 WRITE EPPL ITEMS TO THE DATABASE WITH A FREQUENCY OF LAST
   FOR ALL APPLICABLE ENTITIES

 WRITE EPTH ITEMS TO THE DATABASE WITH A FREQUENCY OF LAST
   FOR ALL APPLICABLE ENTITIES

 WRITE MISC ITEMS TO THE DATABASE WITH A FREQUENCY OF LAST
   FOR THE ENTITIES DEFINED BY COMPONENT _ALLCONTACTS

 NONLINEAR STABILIZATION CONTROL:
 KEY=OFF 


 *GET  ANSINTER_  FROM  ACTI  ITEM=INT        VALUE=  0.00000000    

 *IF  ANSINTER_                         ( =   0.00000     )  NE  
      0                                 ( =   0.00000     )  THEN    

 *ENDIF

 *****  ANSYS SOLVE    COMMAND  *****

 *** WARNING ***                         CP =       0.781   TIME= 19:33:05
 Element shape checking is currently inactive.  Issue SHPP,ON or         
 SHPP,WARN to reactivate, if desired.                                    

 *** NOTE ***                            CP =       0.812   TIME= 19:33:05
 The model data was checked and warning messages were found.             
  Please review output or errors file ( C:\Users\Saraswathi              
 Andappan\Desktop\ANSYS Cornell\_ProjectScratch\ScrD813\file0.err ) for  
 these warning messages.                                                 

 *** SELECTION OF ELEMENT TECHNOLOGIES FOR APPLICABLE ELEMENTS ***
      --- GIVE SUGGESTIONS AND RESET THE KEY OPTIONS ---

 ELEMENT TYPE    1 IS SOLID187. IT IS NOT ASSOCIATED WITH FULLY INCOMPRESSIBLE
 HYPERELASTIC MATERIALS. NO SUGGESTION IS AVAILABLE AND NO RESETTING IS NEEDED.

 ELEMENT TYPE    2 IS SOLID186. KEYOPT(2)=0 IS SUGGESTED AND HAS BEEN RESET.
  KEYOPT(1-12)=    0    0    0    0    0    0    0    0    0    0    0    0

 ELEMENT TYPE    3 IS SOLID187. IT IS NOT ASSOCIATED WITH FULLY INCOMPRESSIBLE
 HYPERELASTIC MATERIALS. NO SUGGESTION IS AVAILABLE AND NO RESETTING IS NEEDED.

 ELEMENT TYPE    4 IS SOLID186. KEYOPT(2)=0 IS SUGGESTED AND HAS BEEN RESET.
  KEYOPT(1-12)=    0    0    0    0    0    0    0    0    0    0    0    0

 ELEMENT TYPE    5 IS SOLID187. IT IS NOT ASSOCIATED WITH FULLY INCOMPRESSIBLE
 HYPERELASTIC MATERIALS. NO SUGGESTION IS AVAILABLE AND NO RESETTING IS NEEDED.

 ELEMENT TYPE    6 IS SOLID186. KEYOPT(2)=0 IS SUGGESTED AND HAS BEEN RESET.
  KEYOPT(1-12)=    0    0    0    0    0    0    0    0    0    0    0    0

 ELEMENT TYPE    7 IS SOLID187. IT IS NOT ASSOCIATED WITH FULLY INCOMPRESSIBLE
 HYPERELASTIC MATERIALS. NO SUGGESTION IS AVAILABLE AND NO RESETTING IS NEEDED.

 ELEMENT TYPE    8 IS SOLID186. KEYOPT(2)=0 IS SUGGESTED AND HAS BEEN RESET.
  KEYOPT(1-12)=    0    0    0    0    0    0    0    0    0    0    0    0



 *** ANSYS - ENGINEERING ANALYSIS SYSTEM  RELEASE Release 18.2     18.2     ***
 DISTRIBUTED ANSYS Academic Teaching Introductory              

 01055371  VERSION=WINDOWS x64   19:33:05  JUN 04, 2018 CP=      0.812

 Bolted Nozzle Flange--Static Structural (B5)                                  



                       S O L U T I O N   O P T I O N S

   PROBLEM DIMENSIONALITY. . . . . . . . . . . . .3-D                  
   DEGREES OF FREEDOM. . . . . . UX   UY   UZ  
   ANALYSIS TYPE . . . . . . . . . . . . . . . . .STATIC (STEADY-STATE)
   OFFSET TEMPERATURE FROM ABSOLUTE ZERO . . . . .  459.67    
   EQUATION SOLVER OPTION. . . . . . . . . . . . .SPARSE             
   NEWTON-RAPHSON OPTION . . . . . . . . . . . . .PROGRAM CHOSEN   
   GLOBALLY ASSEMBLED MATRIX . . . . . . . . . . .SYMMETRIC  

 *** WARNING ***                         CP =       0.812   TIME= 19:33:05
 Material number 19 (used by element 4776 ) should normally have at      
 least one MP or one TB type command associated with it.  Output of      
 energy by material may not be available.                                

 *** NOTE ***                            CP =       0.844   TIME= 19:33:05
 The step data was checked and warning messages were found.              
  Please review output or errors file ( C:\Users\Saraswathi              
 Andappan\Desktop\ANSYS Cornell\_ProjectScratch\ScrD813\file0.err ) for  
 these warning messages.                                                 

 *** NOTE ***                            CP =       0.844   TIME= 19:33:05
 This nonlinear analysis defaults to using the full Newton-Raphson       
 solution procedure.  This can be modified using the NROPT command.      

 *** NOTE ***                            CP =       0.938   TIME= 19:33:05
 Symmetric Deformable- deformable contact pair identified by real        
 constant set 9 and contact element type 9 has been set up.  The         
 companion pair has real constant set ID 10.  Both pairs should have     
 the same behavior.                                                      
 ANSYS will deactivate the current pair and keep its companion pair,     
 resulting in asymmetric contact.                                        
 Contact algorithm: Augmented Lagrange method
 Contact detection at: Gauss integration point
 Contact stiffness factor FKN                  1.0000    
 The resulting initial contact stiffness      0.10768E+11
 Default penetration tolerance factor FTOLN   0.10000    
 The resulting penetration tolerance          0.49508E-02
 Default opening contact stiffness OPSF will be used.
 Default tangent stiffness factor FKT          1.0000    
 Default elastic slip factor SLTOL            0.50000E-02
 The resulting elastic slip tolerance         0.34717E-03
 Update contact stiffness at each iteration
 Default Max. friction stress TAUMAX          0.10000E+21
 Average contact surface length               0.69433E-01
 Average contact pair depth                   0.49508E-01
 Default pinball region factor PINB           0.25000    
 The resulting pinball region                 0.12377E-01
 Initial penetration/gap is excluded.
 Bonded contact (always) is defined.

 *** NOTE ***                            CP =       0.938   TIME= 19:33:05
 Max.  Initial penetration 2.695987762E-03 was detected between contact  
 element 4345 and target element 4412.                                   
 You may move entire target surface by : x= 2.266696386E-03, y=          
 1.459601817E-03, z= -1.987064981E-07,to reduce initial penetration.     
 ****************************************
  

 *** NOTE ***                            CP =       0.938   TIME= 19:33:05
 Symmetric Deformable- deformable contact pair identified by real        
 constant set 10 and contact element type 9 has been set up.  The        
 companion pair has real constant set ID 9.  Both pairs should have the  
 same behavior.                                                          
 ANSYS will keep the current pair and deactivate its companion pair,     
 resulting in asymmetric contact.                                        
 Contact algorithm: Augmented Lagrange method
 Contact detection at: Gauss integration point
 Contact stiffness factor FKN                  1.0000    
 The resulting initial contact stiffness      0.10768E+11
 Default penetration tolerance factor FTOLN   0.10000    
 The resulting penetration tolerance          0.53864E-02
 Default opening contact stiffness OPSF will be used.
 Default tangent stiffness factor FKT          1.0000    
 Default elastic slip factor SLTOL            0.50000E-02
 The resulting elastic slip tolerance         0.33174E-03
 Update contact stiffness at each iteration
 Default Max. friction stress TAUMAX          0.10000E+21
 Average contact surface length               0.66347E-01
 Average contact pair depth                   0.53864E-01
 Default pinball region factor PINB           0.25000    
 The resulting pinball region                 0.13466E-01
 Initial penetration/gap is excluded.
 Bonded contact (always) is defined.

 *** NOTE ***                            CP =       0.938   TIME= 19:33:05
 Max.  Initial penetration 2.545764638E-03 was detected between contact  
 element 4377 and target element 4282.                                   
 You may move entire target surface by : x= -2.295801394E-03, y=         
 -1.100090422E-03, z= 3.822932446E-06,to reduce initial penetration.     
 ****************************************
  

 *** NOTE ***                            CP =       0.938   TIME= 19:33:05
 Symmetric Deformable- deformable contact pair identified by real        
 constant set 11 and contact element type 11 has been set up.  The       
 companion pair has real constant set ID 12.  Both pairs should have     
 the same behavior.                                                      
 ANSYS will keep the current pair and deactivate its companion pair,     
 resulting in asymmetric contact.                                        
 Contact algorithm: Augmented Lagrange method
 Contact detection at: Gauss integration point
 Contact stiffness factor FKN                  1.0000    
 The resulting initial contact stiffness      0.27915E+10
 Default penetration tolerance factor FTOLN   0.10000    
 The resulting penetration tolerance          0.16962E-01
 Max. initial friction coefficient MU         0.50000    
 Default tangent stiffness factor FKT          1.0000    
 Default elastic slip factor SLTOL            0.10000E-01
 The resulting elastic slip tolerance         0.25972E-02
 Update contact stiffness at each iteration
 Default Max. friction stress TAUMAX          0.10000E+21
 Average contact surface length               0.25972    
 Average contact pair depth                   0.16962    
 Default pinball region factor PINB            1.0000    
 The resulting pinball region                 0.16962    
 *WARNING*: Initial penetration is included.

 *** NOTE ***                            CP =       0.938   TIME= 19:33:05
 Max.  Initial penetration 2.842170943E-14 was detected between contact  
 element 4452 and target element 4502.                                   
 ****************************************
  

 *** NOTE ***                            CP =       0.938   TIME= 19:33:05
 Symmetric Deformable- deformable contact pair identified by real        
 constant set 12 and contact element type 11 has been set up.  The       
 companion pair has real constant set ID 11.  Both pairs should have     
 the same behavior.                                                      
 ANSYS will deactivate the current pair and keep its companion pair,     
 resulting in asymmetric contact.                                        
 Contact algorithm: Augmented Lagrange method
 Contact detection at: Gauss integration point
 Contact stiffness factor FKN                  1.0000    
 The resulting initial contact stiffness      0.27915E+10
 Default penetration tolerance factor FTOLN   0.10000    
 The resulting penetration tolerance          0.20777E-01
 Max. initial friction coefficient MU         0.50000    
 Default tangent stiffness factor FKT          1.0000    
 Default elastic slip factor SLTOL            0.10000E-01
 The resulting elastic slip tolerance         0.27484E-02
 Update contact stiffness at each iteration
 Default Max. friction stress TAUMAX          0.10000E+21
 Average contact surface length               0.27484    
 Average contact pair depth                   0.20777    
 Default pinball region factor PINB            1.0000    
 The resulting pinball region                 0.20777    
 *WARNING*: Initial penetration is included.

 *** NOTE ***                            CP =       0.938   TIME= 19:33:05
 Max.  Initial penetration 2.842170943E-14 was detected between contact  
 element 4486 and target element 4440.                                   
 ****************************************
  

 *** NOTE ***                            CP =       0.938   TIME= 19:33:05
 Symmetric Deformable- deformable contact pair identified by real        
 constant set 13 and contact element type 13 has been set up.  The       
 companion pair has real constant set ID 14.  Both pairs should have     
 the same behavior.                                                      
 ANSYS will deactivate the current pair and keep its companion pair,     
 resulting in asymmetric contact.                                        
 Contact algorithm: Augmented Lagrange method
 Contact detection at: Gauss integration point
 Contact stiffness factor FKN                  1.0000    
 The resulting initial contact stiffness      0.31305E+10
 Default penetration tolerance factor FTOLN   0.10000    
 The resulting penetration tolerance          0.18528E-01
 Frictionless contact pair is defined
 Update contact stiffness at each iteration
 Average contact surface length               0.27128    
 Average contact pair depth                   0.18528    
 Default pinball region factor PINB            1.0000    
 The resulting pinball region                 0.18528    
 *WARNING*: Initial penetration is included.

 *** NOTE ***                            CP =       0.938   TIME= 19:33:05
 Max.  Initial penetration 1.421085472E-14 was detected between contact  
 element 4550 and target element 4568.                                   
 ****************************************
  

 *** NOTE ***                            CP =       0.938   TIME= 19:33:05
 Symmetric Deformable- deformable contact pair identified by real        
 constant set 14 and contact element type 13 has been set up.  The       
 companion pair has real constant set ID 13.  Both pairs should have     
 the same behavior.                                                      
 ANSYS will keep the current pair and deactivate its companion pair,     
 resulting in asymmetric contact.                                        
 Contact algorithm: Augmented Lagrange method
 Contact detection at: Gauss integration point
 Contact stiffness factor FKN                  1.0000    
 The resulting initial contact stiffness      0.31305E+10
 Default penetration tolerance factor FTOLN   0.10000    
 The resulting penetration tolerance          0.65309E-02
 Frictionless contact pair is defined
 Update contact stiffness at each iteration
 Average contact surface length               0.66907E-01
 Average contact pair depth                   0.65309E-01
 Default pinball region factor PINB            1.0000    
 The resulting pinball region                 0.65309E-01
 *WARNING*: Initial penetration is included.

 *** NOTE ***                            CP =       0.938   TIME= 19:33:05
 Max.  Initial penetration 1.421085472E-14 was detected between contact  
 element 4561 and target element 4531.                                   
 ****************************************
  

 *** NOTE ***                            CP =       0.938   TIME= 19:33:05
 Symmetric Deformable- deformable contact pair identified by real        
 constant set 15 and contact element type 15 has been set up.  The       
 companion pair has real constant set ID 16.  Both pairs should have     
 the same behavior.                                                      
 ANSYS will deactivate the current pair and keep its companion pair,     
 resulting in asymmetric contact.                                        
 Contact algorithm: Augmented Lagrange method
 Contact detection at: Gauss integration point
 Contact stiffness factor FKN                  1.0000    
 The resulting initial contact stiffness      0.40263E+10
 Default penetration tolerance factor FTOLN   0.10000    
 The resulting penetration tolerance          0.14405E-01
 Frictionless contact pair is defined
 Update contact stiffness at each iteration
 Average contact surface length               0.23884    
 Average contact pair depth                   0.14405    
 Default pinball region factor PINB            1.0000    
 The resulting pinball region                 0.14405    
 *WARNING*: Initial penetration is included.

 *** NOTE ***                            CP =       0.938   TIME= 19:33:05
 Max.  Initial penetration 1.421085472E-14 was detected between contact  
 element 4610 and target element 4643.                                   
 ****************************************
  

 *** NOTE ***                            CP =       0.938   TIME= 19:33:05
 Symmetric Deformable- deformable contact pair identified by real        
 constant set 16 and contact element type 15 has been set up.  The       
 companion pair has real constant set ID 15.  Both pairs should have     
 the same behavior.                                                      
 ANSYS will keep the current pair and deactivate its companion pair,     
 resulting in asymmetric contact.                                        
 Contact algorithm: Augmented Lagrange method
 Contact detection at: Gauss integration point
 Contact stiffness factor FKN                  1.0000    
 The resulting initial contact stiffness      0.40263E+10
 Default penetration tolerance factor FTOLN   0.10000    
 The resulting penetration tolerance          0.46862E-02
 Frictionless contact pair is defined
 Update contact stiffness at each iteration
 Average contact surface length               0.66734E-01
 Average contact pair depth                   0.46862E-01
 Default pinball region factor PINB            1.0000    
 The resulting pinball region                 0.46862E-01
 *WARNING*: Initial penetration is included.

 *** NOTE ***                            CP =       0.938   TIME= 19:33:05
 Max.  Initial penetration 2.842170943E-14 was detected between contact  
 element 4614 and target element 4594.                                   
 ****************************************
  

 *** NOTE ***                            CP =       0.938   TIME= 19:33:05
 Symmetric Deformable- deformable contact pair identified by real        
 constant set 17 and contact element type 17 has been set up.  The       
 companion pair has real constant set ID 18.  Both pairs should have     
 the same behavior.                                                      
 ANSYS will keep the current pair and deactivate its companion pair,     
 resulting in asymmetric contact.                                        
 Contact algorithm: Augmented Lagrange method
 Contact detection at: Gauss integration point
 Contact stiffness factor FKN                  1.0000    
 The resulting initial contact stiffness      0.30516E+10
 Default penetration tolerance factor FTOLN   0.10000    
 The resulting penetration tolerance          0.49803E-02
 Frictionless contact pair is defined
 Update contact stiffness at each iteration
 Average contact surface length               0.70374E-01
 Average contact pair depth                   0.49803E-01
 Default pinball region factor PINB            1.0000    
 The resulting pinball region                 0.49803E-01
 *WARNING*: Initial penetration is included.

 *** NOTE ***                            CP =       0.938   TIME= 19:33:05
 Max.  Initial penetration 2.281741995E-04 was detected between contact  
 element 4717 and target element 4765.                                   
 You may move entire target surface by : x= 1.632071294E-04, y=          
 -1.594581394E-04, z= -1.092856908E-09,to reduce initial penetration.    
 ****************************************
  

 *** NOTE ***                            CP =       0.938   TIME= 19:33:05
 Symmetric Deformable- deformable contact pair identified by real        
 constant set 18 and contact element type 17 has been set up.  The       
 companion pair has real constant set ID 17.  Both pairs should have     
 the same behavior.                                                      
 ANSYS will deactivate the current pair and keep its companion pair,     
 resulting in asymmetric contact.                                        
 Contact algorithm: Augmented Lagrange method
 Contact detection at: Gauss integration point
 Contact stiffness factor FKN                  1.0000    
 The resulting initial contact stiffness      0.30516E+10
 Default penetration tolerance factor FTOLN   0.10000    
 The resulting penetration tolerance          0.19007E-01
 Frictionless contact pair is defined
 Update contact stiffness at each iteration
 Average contact surface length               0.13091    
 Average contact pair depth                   0.19007    
 Default pinball region factor PINB            1.0000    
 The resulting pinball region                 0.19007    
 *WARNING*: Initial penetration is included.

 *** NOTE ***                            CP =       0.938   TIME= 19:33:05
 Max.  Initial penetration 1.97593897E-04 was detected between contact   
 element 4745 and target element 4687.                                   
 You may move entire target surface by : x= -1.359643866E-04, y=         
 -1.433769086E-04, z= 3.094761597E-07,to reduce initial penetration.     
 ****************************************
  

 *** WARNING ***                         CP =       0.938   TIME= 19:33:05
 Maximum friction coefficient 0.5 is defined in the model.  Switch to    
 the unsymmetric solver (NROP,UNSYM) instead if convergence difficulty   
 is encountered.                                                         
  
  

  
  
     D I S T R I B U T E D   D O M A I N   D E C O M P O S E R
  
  ...Number of elements: 5766
  ...Number of nodes:    26236
  ...Decompose to 2 CPU domains
  ...Element load balance ratio =     1.109


                      L O A D   S T E P   O P T I O N S

   LOAD STEP NUMBER. . . . . . . . . . . . . . . .     1
   TIME AT END OF THE LOAD STEP. . . . . . . . . .  1.0000    
   AUTOMATIC TIME STEPPING . . . . . . . . . . . .    ON
      INITIAL NUMBER OF SUBSTEPS . . . . . . . . .     5
      MAXIMUM NUMBER OF SUBSTEPS . . . . . . . . .    20
      MINIMUM NUMBER OF SUBSTEPS . . . . . . . . .     1
   MAXIMUM NUMBER OF EQUILIBRIUM ITERATIONS. . . .    15
   STEP CHANGE BOUNDARY CONDITIONS . . . . . . . .    NO
   TERMINATE ANALYSIS IF NOT CONVERGED . . . . . .YES (EXIT)  
   CONVERGENCE CONTROLS. . . . . . . . . . . . . .USE DEFAULTS
   PRINT OUTPUT CONTROLS . . . . . . . . . . . . .NO PRINTOUT
   DATABASE OUTPUT CONTROLS
      ITEM     FREQUENCY   COMPONENT
       ALL       NONE               
      NSOL       LAST               
      RSOL       LAST               
      NLOA       LAST               
      STRS       LAST               
      EPEL       LAST               
      EPPL       LAST               
      EPTH       LAST               
      MISC       LAST       _ALLCONTACTS


 SOLUTION MONITORING INFO IS WRITTEN TO FILE= file.mntr                                                                                                                                                                                                                                                           

 >>>> PRETENSION ELEMENT STATUS <<<<
 SECTION NAME   PT.NODE  --------STATUS--------------------  ----LOAD SOURCE----
    22            26093  APPLIED PRELOAD FORCE=  1160.0      F COMMAND

 *** NOTE ***                            CP =       1.844   TIME= 19:33:05
 Symmetric Deformable- deformable contact pair identified by real        
 constant set 15 and contact element type 15 has been set up.  The       
 companion pair has real constant set ID 16.  Both pairs should have     
 the same behavior.                                                      
 ANSYS will deactivate the current pair and keep its companion pair,     
 resulting in asymmetric contact.                                        
 Contact algorithm: Augmented Lagrange method
 Contact detection at: Gauss integration point
 Contact stiffness factor FKN                  1.0000    
 The resulting initial contact stiffness      0.40263E+10
 Default penetration tolerance factor FTOLN   0.10000    
 The resulting penetration tolerance          0.14405E-01
 Frictionless contact pair is defined
 Update contact stiffness at each iteration
 Average contact surface length               0.23884    
 Average contact pair depth                   0.14405    
 Default pinball region factor PINB            1.0000    
 The resulting pinball region                 0.14405    
 *WARNING*: Initial penetration is included.

 *** NOTE ***                            CP =       1.844   TIME= 19:33:05
 Max.  Initial penetration 1.421085472E-14 was detected between contact  
 element 4610 and target element 4643.                                   
 ****************************************
  

 *** NOTE ***                            CP =       1.844   TIME= 19:33:05
 Symmetric Deformable- deformable contact pair identified by real        
 constant set 16 and contact element type 15 has been set up.  The       
 companion pair has real constant set ID 15.  Both pairs should have     
 the same behavior.                                                      
 ANSYS will keep the current pair and deactivate its companion pair,     
 resulting in asymmetric contact.                                        
 Contact algorithm: Augmented Lagrange method
 Contact detection at: Gauss integration point
 Contact stiffness factor FKN                  1.0000    
 The resulting initial contact stiffness      0.40263E+10
 Default penetration tolerance factor FTOLN   0.10000    
 The resulting penetration tolerance          0.46862E-02
 Frictionless contact pair is defined
 Update contact stiffness at each iteration
 Average contact surface length               0.66734E-01
 Average contact pair depth                   0.46862E-01
 Default pinball region factor PINB            1.0000    
 The resulting pinball region                 0.46862E-01
 *WARNING*: Initial penetration is included.

 *** NOTE ***                            CP =       1.844   TIME= 19:33:05
 Max.  Initial penetration 2.842170943E-14 was detected between contact  
 element 4614 and target element 4594.                                   
 ****************************************
  

 *** NOTE ***                            CP =       1.844   TIME= 19:33:05
 Symmetric Deformable- deformable contact pair identified by real        
 constant set 17 and contact element type 17 has been set up.  The       
 companion pair has real constant set ID 18.  Both pairs should have     
 the same behavior.                                                      
 ANSYS will keep the current pair and deactivate its companion pair,     
 resulting in asymmetric contact.                                        
 Contact algorithm: Augmented Lagrange method
 Contact detection at: Gauss integration point
 Contact stiffness factor FKN                  1.0000    
 The resulting initial contact stiffness      0.30516E+10
 Default penetration tolerance factor FTOLN   0.10000    
 The resulting penetration tolerance          0.49803E-02
 Frictionless contact pair is defined
 Update contact stiffness at each iteration
 Average contact surface length               0.70374E-01
 Average contact pair depth                   0.49803E-01
 Default pinball region factor PINB            1.0000    
 The resulting pinball region                 0.49803E-01
 *WARNING*: Initial penetration is included.

 *** NOTE ***                            CP =       1.844   TIME= 19:33:05
 Max.  Initial penetration 2.281741995E-04 was detected between contact  
 element 4717 and target element 4765.                                   
 You may move entire target surface by : x= 1.632071294E-04, y=          
 -1.594581394E-04, z= -1.092856908E-09,to reduce initial penetration.    
 ****************************************
  

 *** NOTE ***                            CP =       1.844   TIME= 19:33:05
 Symmetric Deformable- deformable contact pair identified by real        
 constant set 18 and contact element type 17 has been set up.  The       
 companion pair has real constant set ID 17.  Both pairs should have     
 the same behavior.                                                      
 ANSYS will deactivate the current pair and keep its companion pair,     
 resulting in asymmetric contact.                                        
 Contact algorithm: Augmented Lagrange method
 Contact detection at: Gauss integration point
 Contact stiffness factor FKN                  1.0000    
 The resulting initial contact stiffness      0.30516E+10
 Default penetration tolerance factor FTOLN   0.10000    
 The resulting penetration tolerance          0.19007E-01
 Frictionless contact pair is defined
 Update contact stiffness at each iteration
 Average contact surface length               0.13091    
 Average contact pair depth                   0.19007    
 Default pinball region factor PINB            1.0000    
 The resulting pinball region                 0.19007    
 *WARNING*: Initial penetration is included.

 *** NOTE ***                            CP =       1.844   TIME= 19:33:05
 Max.  Initial penetration 1.97593897E-04 was detected between contact   
 element 4745 and target element 4687.                                   
 You may move entire target surface by : x= -1.359643866E-04, y=         
 -1.433769086E-04, z= 3.094761597E-07,to reduce initial penetration.     
 ****************************************
  
 MAXIMUM NUMBER OF EQUILIBRIUM ITERATIONS HAS BEEN MODIFIED              
  TO BE, NEQIT = 26, BY SOLUTION CONTROL LOGIC.                          

  
 The FEA model contains 0 external CE equations and 141 internal CE      
 equations.                                                              
  
 *************************************************
  SUMMARY FOR CONTACT PAIR IDENTIFIED BY REAL CONSTANT SET          15

 *** NOTE ***                            CP =       2.938   TIME= 19:33:06
 Contact pair is inactive.                                               
  
 *************************************************
  SUMMARY FOR CONTACT PAIR IDENTIFIED BY REAL CONSTANT SET          16
 Max.  Penetration of -2.842170943E-14 has been detected between contact 
 element 4614 and target element 4594.                                   
 For total 16 contact elements, there are 16 elements are in contact.    
 Contacting area 4.924094727E-02.                                        
 Max.  Pinball distance 4.686237979E-02.                                 
 One of the contact searching regions contains at least 6 target         
 elements.                                                               
 Max.  Pressure/force 3.962743178E-05.                                   
 Max.  Normal stiffness 1.394266305E+09.                                 
 Min.  Normal stiffness 1.394266305E+09.                                 
 *************************************************
  
 *************************************************
  SUMMARY FOR CONTACT PAIR IDENTIFIED BY REAL CONSTANT SET          17
 Max.  Penetration of -2.281741995E-04 has been detected between contact 
 element 4717 and target element 4765.                                   
 For total 49 contact elements, there are 47 elements are in contact.    
 Contacting area 0.142768653.                                            
 Max.  Pinball distance 4.980269613E-02.                                 
 One of the contact searching regions contains at least 12 target        
 elements.                                                               
 Max.  Pressure/force 246779.354.                                        
 Max.  Normal stiffness 1.081539257E+09.                                 
 Min.  Normal stiffness 1.081539257E+09.                                 
 *************************************************
  
 *************************************************
  SUMMARY FOR CONTACT PAIR IDENTIFIED BY REAL CONSTANT SET          18

 *** NOTE ***                            CP =       2.938   TIME= 19:33:06
 Contact pair is inactive.                                               

 Range of element maximum matrix coefficients in global coordinates
 Maximum = 3.835472874E+09 at element 121.                               
 Minimum = 1.418877931E-03 at element 5766.                              

 *** WARNING ***                         CP =       2.953   TIME= 19:33:06
 Coefficient ratio exceeds 1.0e8 - Check results.                        

   *** ELEMENT MATRIX FORMULATION TIMES
     TYPE    NUMBER   ENAME      TOTAL CP  AVE CP

        1        16  SOLID187      0.000   0.000000
        2      1695  SOLID186      0.453   0.000267
        3        55  SOLID187      0.000   0.000000
        4      1850  SOLID186      0.484   0.000262
        5        45  SOLID187      0.000   0.000000
        6       415  SOLID186      0.062   0.000151
        7        22  SOLID187      0.000   0.000000
        8       131  SOLID186      0.047   0.000358
        9        98  CONTA174      0.000   0.000000
       10        98  TARGE170      0.000   0.000000
       11        46  CONTA174      0.016   0.000340
       12        46  TARGE170      0.016   0.000340
       13        29  CONTA174      0.000   0.000000
       14        29  TARGE170      0.000   0.000000
       15        35  CONTA174      0.016   0.000446
       16        35  TARGE170      0.000   0.000000
       17        65  CONTA174      0.016   0.000240
       18        65  TARGE170      0.000   0.000000
       19       836  SURF154       0.109   0.000131
       20         6  SURF154       0.000   0.000000
       21         6  SURF154       0.000   0.000000
       22        47  PRETS179      0.000   0.000000
       23        96  COMBIN14      0.000   0.000000
 Time at end of element matrix formulation CP = 2.953125.                

 ALL CURRENT ANSYS DATA WRITTEN TO FILE NAME= file.rdb
  FOR POSSIBLE RESUME FROM THIS POINT
     FORCE CONVERGENCE VALUE  =   2863.      CRITERION=   1.625    

 DISTRIBUTED SPARSE MATRIX DIRECT SOLVER.
  Number of equations =       68958,    Maximum wavefront =    360

  Local memory allocated for solver              =    131.367 MB
  Local memory required for in-core solution     =    118.534 MB
  Local memory required for out-of-core solution =     81.849 MB

  Total memory allocated for solver              =    284.726 MB
  Total memory required for in-core solution     =    255.960 MB
  Total memory required for out-of-core solution =    167.898 MB

 *** NOTE ***                            CP =       3.531   TIME= 19:33:07
 The Distributed Sparse Matrix Solver is currently running in the        
 in-core memory mode.  This memory mode uses the most amount of memory   
 in order to avoid using the hard drive as much as possible, which most  
 often results in the fastest solution time.  This mode is recommended   
 if enough physical memory is present to accommodate all of the solver   
 data.                                                                   
 curEqn=  30985  totEqn=  30985 Job CP sec=      4.078
      Factor Done= 100% Factor Wall sec=      0.287 rate=    5280.6 Mflops
 Distributed sparse solver maximum pivot= 627583511 at node 475 UX.      
 Distributed sparse solver minimum pivot= 37459.1155 at node 22732 UY.   
 Distributed sparse solver minimum pivot in absolute value= 37459.1155   
 at node 22732 UY.                                                       
     DISP CONVERGENCE VALUE   =  0.2464E-03  CRITERION=  0.1257E-04
    EQUIL ITER   1 COMPLETED.  NEW TRIANG MATRIX.  MAX DOF INC=  0.2464E-03
     DISP CONVERGENCE VALUE   =  0.2171E-03  CRITERION=  0.1283E-04
     LINE SEARCH PARAMETER =  0.8811     SCALED MAX DOF INC =  0.2171E-03
     FORCE CONVERGENCE VALUE  =   362.4      CRITERION=   1.484    
    EQUIL ITER   2 COMPLETED.  NEW TRIANG MATRIX.  MAX DOF INC=  0.1133E-03
     DISP CONVERGENCE VALUE   =  0.1133E-03  CRITERION=  0.1755E-04
     LINE SEARCH PARAMETER =   1.000     SCALED MAX DOF INC =  0.1133E-03
     FORCE CONVERGENCE VALUE  =   11.13      CRITERION=   1.325    
    EQUIL ITER   3 COMPLETED.  NEW TRIANG MATRIX.  MAX DOF INC= -0.7784E-05
     DISP CONVERGENCE VALUE   =  0.7784E-05  CRITERION=  0.1794E-04 <<< CONVERGED
     LINE SEARCH PARAMETER =   1.000     SCALED MAX DOF INC = -0.7784E-05
     FORCE CONVERGENCE VALUE  =   5.720      CRITERION=   1.353    
    EQUIL ITER   4 COMPLETED.  NEW TRIANG MATRIX.  MAX DOF INC= -0.2607E-04
     DISP CONVERGENCE VALUE   =  0.2607E-04  CRITERION=  0.1833E-04
     LINE SEARCH PARAMETER =   1.000     SCALED MAX DOF INC = -0.2607E-04
     FORCE CONVERGENCE VALUE  =  0.2061      CRITERION=   1.379     <<< CONVERGED
    EQUIL ITER   5 COMPLETED.  NEW TRIANG MATRIX.  MAX DOF INC= -0.3706E-06
     DISP CONVERGENCE VALUE   =  0.3706E-06  CRITERION=  0.1871E-04 <<< CONVERGED
     LINE SEARCH PARAMETER =   1.000     SCALED MAX DOF INC = -0.3706E-06
    >>> SOLUTION CONVERGED AFTER EQUILIBRIUM ITERATION   5

   *** ELEMENT RESULT CALCULATION TIMES
     TYPE    NUMBER   ENAME      TOTAL CP  AVE CP

        1        16  SOLID187      0.000   0.000000
        2      1695  SOLID186      0.125   0.000074
        3        55  SOLID187      0.016   0.000284
        4      1850  SOLID186      0.172   0.000093
        5        45  SOLID187      0.000   0.000000
        6       415  SOLID186      0.031   0.000075
        7        22  SOLID187      0.000   0.000000
        8       131  SOLID186      0.016   0.000119
        9        98  CONTA174      0.000   0.000000
       11        46  CONTA174      0.000   0.000000
       13        29  CONTA174      0.000   0.000000
       15        35  CONTA174      0.000   0.000000
       17        65  CONTA174      0.016   0.000240
       19       836  SURF154       0.000   0.000000
       20         6  SURF154       0.000   0.000000
       21         6  SURF154       0.016   0.002604
       23        96  COMBIN14      0.000   0.000000

   *** NODAL LOAD CALCULATION TIMES
     TYPE    NUMBER   ENAME      TOTAL CP  AVE CP

        1        16  SOLID187      0.000   0.000000
        2      1695  SOLID186      0.016   0.000009
        3        55  SOLID187      0.000   0.000000
        4      1850  SOLID186      0.000   0.000000
        5        45  SOLID187      0.000   0.000000
        6       415  SOLID186      0.000   0.000000
        7        22  SOLID187      0.000   0.000000
        8       131  SOLID186      0.000   0.000000
        9        98  CONTA174      0.000   0.000000
       11        46  CONTA174      0.000   0.000000
       13        29  CONTA174      0.000   0.000000
       15        35  CONTA174      0.000   0.000000
       17        65  CONTA174      0.000   0.000000
       19       836  SURF154       0.000   0.000000
       20         6  SURF154       0.000   0.000000
       21         6  SURF154       0.000   0.000000
       23        96  COMBIN14      0.000   0.000000
 *** LOAD STEP     1   SUBSTEP     1  COMPLETED.    CUM ITER =      5
 *** TIME =  0.200000         TIME INC =  0.200000    
 *** AUTO STEP TIME:  NEXT TIME INC = 0.20000      UNCHANGED

     FORCE CONVERGENCE VALUE  =   264.1      CRITERION=   2.540    
     DISP CONVERGENCE VALUE   =  0.8359E-04  CRITERION=  0.1691E-04
    EQUIL ITER   1 COMPLETED.  NEW TRIANG MATRIX.  MAX DOF INC= -0.8359E-04
     DISP CONVERGENCE VALUE   =  0.7017E-04  CRITERION=  0.1726E-04
     LINE SEARCH PARAMETER =  0.8394     SCALED MAX DOF INC = -0.7017E-04
     FORCE CONVERGENCE VALUE  =   37.38      CRITERION=   2.478    
    EQUIL ITER   2 COMPLETED.  NEW TRIANG MATRIX.  MAX DOF INC= -0.1737E-04
     DISP CONVERGENCE VALUE   =  0.1737E-04  CRITERION=  0.1761E-04 <<< CONVERGED
     LINE SEARCH PARAMETER =   1.000     SCALED MAX DOF INC = -0.1737E-04
     FORCE CONVERGENCE VALUE  =  0.2880E-01  CRITERION=   2.527     <<< CONVERGED
    >>> SOLUTION CONVERGED AFTER EQUILIBRIUM ITERATION   2
 *** LOAD STEP     1   SUBSTEP     2  COMPLETED.    CUM ITER =      7
 *** TIME =  0.400000         TIME INC =  0.200000    
 *** AUTO TIME STEP:  NEXT TIME INC = 0.30000      INCREASED (FACTOR = 1.5000)

     FORCE CONVERGENCE VALUE  =   5.746      CRITERION=   4.213    
     DISP CONVERGENCE VALUE   =  0.3133E-05  CRITERION=  0.2363E-04 <<< CONVERGED
    EQUIL ITER   1 COMPLETED.  NEW TRIANG MATRIX.  MAX DOF INC=  0.3133E-05
     DISP CONVERGENCE VALUE   =  0.3132E-05  CRITERION=  0.2411E-04 <<< CONVERGED
     LINE SEARCH PARAMETER =  0.9999     SCALED MAX DOF INC =  0.3132E-05
     FORCE CONVERGENCE VALUE  =  0.8905E-02  CRITERION=   4.299     <<< CONVERGED
    >>> SOLUTION CONVERGED AFTER EQUILIBRIUM ITERATION   1
 *** LOAD STEP     1   SUBSTEP     3  COMPLETED.    CUM ITER =      8
 *** TIME =  0.700000         TIME INC =  0.300000    
 *** AUTO STEP TIME:  NEXT TIME INC = 0.30000      UNCHANGED

     FORCE CONVERGENCE VALUE  =   10.42      CRITERION=   6.013    
     DISP CONVERGENCE VALUE   =  0.4805E-05  CRITERION=  0.2363E-04 <<< CONVERGED
    EQUIL ITER   1 COMPLETED.  NEW TRIANG MATRIX.  MAX DOF INC=  0.4805E-05
     DISP CONVERGENCE VALUE   =  0.4805E-05  CRITERION=  0.2411E-04 <<< CONVERGED
     LINE SEARCH PARAMETER =   1.000     SCALED MAX DOF INC =  0.4805E-05
     FORCE CONVERGENCE VALUE  =  0.5747      CRITERION=   6.136     <<< CONVERGED
    >>> SOLUTION CONVERGED AFTER EQUILIBRIUM ITERATION   1
 *** LOAD STEP     1   SUBSTEP     4  COMPLETED.    CUM ITER =      9
 *** TIME =   1.00000         TIME INC =  0.300000    


 *** ANSYS BINARY FILE STATISTICS
  BUFFER SIZE USED= 16384
        0.375 MB WRITTEN ON ELEMENT MATRIX FILE: file0.emat
       14.500 MB WRITTEN ON ELEMENT SAVED DATA FILE: file0.esav
       29.438 MB WRITTEN ON ASSEMBLED MATRIX FILE: file0.full
        4.875 MB WRITTEN ON RESULTS FILE: file0.rst
 *************** Write FE CONNECTORS *********

 WRITE OUT CONSTRAINT EQUATIONS TO FILE= file.ce                                                                                                                                                                                                                                                             
 ****************************************************
 *************** FINISHED SOLVE FOR LS 1 *************
 ****************************************************
 ******************* SOLVE FOR LS 2 OF 3 ****************

 ALL SELECT   FOR ITEM=ELEM COMPONENT=    
  IN RANGE         1 TO       5766 STEP          1

       5766  ELEMENTS (OF       5766  DEFINED) SELECTED BY  ESEL  COMMAND.

 PRINTOUT RESUMED BY /GOP

 DELETE ALL SPECIFIED NODAL LOADS FROM NODE     26093 TO     26093 BY       1

 NUMBER OF NODAL LOADS DELETED=       1

 *** WARNING ***                         CP =      23.438   TIME= 19:33:29
 Table _FIX is an ANSYS reserved table name.  It is used to constrain    
 structural degrees of freedom to their current displaced status.  This  
 table should not be used for other purposes.                            

 SPECIFIED CONSTRAINT UX   FOR SELECTED NODES        26093 TO       26093 BY           1
 SET ACCORDING TO TABLE PARAMETER = _FIX    

 USE AUTOMATIC TIME STEPPING THIS LOAD STEP

 USE       5 SUBSTEPS INITIALLY THIS LOAD STEP FOR ALL  DEGREES OF FREEDOM
 FOR AUTOMATIC TIME STEPPING:
   USE     20 SUBSTEPS AS A MAXIMUM
   USE      1 SUBSTEPS AS A MINIMUM

 TIME=  2.0000    

 ERASE THE CURRENT DATABASE OUTPUT CONTROL TABLE.


 WRITE ALL  ITEMS TO THE DATABASE WITH A FREQUENCY OF NONE
   FOR ALL APPLICABLE ENTITIES

 WRITE NSOL ITEMS TO THE DATABASE WITH A FREQUENCY OF ALL 
   FOR ALL APPLICABLE ENTITIES

 WRITE RSOL ITEMS TO THE DATABASE WITH A FREQUENCY OF ALL 
   FOR ALL APPLICABLE ENTITIES

 WRITE NLOA ITEMS TO THE DATABASE WITH A FREQUENCY OF ALL 
   FOR ALL APPLICABLE ENTITIES

 WRITE STRS ITEMS TO THE DATABASE WITH A FREQUENCY OF ALL 
   FOR ALL APPLICABLE ENTITIES

 WRITE EPEL ITEMS TO THE DATABASE WITH A FREQUENCY OF ALL 
   FOR ALL APPLICABLE ENTITIES

 WRITE EPPL ITEMS TO THE DATABASE WITH A FREQUENCY OF ALL 
   FOR ALL APPLICABLE ENTITIES

 WRITE EPTH ITEMS TO THE DATABASE WITH A FREQUENCY OF ALL 
   FOR ALL APPLICABLE ENTITIES

 WRITE MISC ITEMS TO THE DATABASE WITH A FREQUENCY OF ALL 
   FOR THE ENTITIES DEFINED BY COMPONENT _ALLCONTACTS

 NONLINEAR STABILIZATION CONTROL:
 KEY=OFF 


 *****  ANSYS SOLVE    COMMAND  *****

 *** WARNING ***                         CP =      23.469   TIME= 19:33:29
 Material number 19 (used by element 4776 ) should normally have at      
 least one MP or one TB type command associated with it.  Output of      
 energy by material may not be available.                                

 *** NOTE ***                            CP =      23.500   TIME= 19:33:29
 The step data was checked and warning messages were found.              
  Please review output or errors file ( C:\Users\Saraswathi              
 Andappan\Desktop\ANSYS Cornell\_ProjectScratch\ScrD813\file0.err ) for  
 these warning messages.                                                 

 *** NOTE ***                            CP =      23.500   TIME= 19:33:29
 This nonlinear analysis defaults to using the full Newton-Raphson       
 solution procedure.  This can be modified using the NROPT command.      

 *** ANSYS - ENGINEERING ANALYSIS SYSTEM  RELEASE Release 18.2     18.2     ***
 DISTRIBUTED ANSYS Academic Teaching Introductory              

 01055371  VERSION=WINDOWS x64   19:33:29  JUN 04, 2018 CP=     24.453

 Bolted Nozzle Flange--Static Structural (B5)                                  



                      L O A D   S T E P   O P T I O N S

   LOAD STEP NUMBER. . . . . . . . . . . . . . . .     2
   TIME AT END OF THE LOAD STEP. . . . . . . . . .  2.0000    
   AUTOMATIC TIME STEPPING . . . . . . . . . . . .    ON
      INITIAL NUMBER OF SUBSTEPS . . . . . . . . .     5
      MAXIMUM NUMBER OF SUBSTEPS . . . . . . . . .    20
      MINIMUM NUMBER OF SUBSTEPS . . . . . . . . .     1
   MAXIMUM NUMBER OF EQUILIBRIUM ITERATIONS. . . .    15
   STEP CHANGE BOUNDARY CONDITIONS . . . . . . . .    NO
   TERMINATE ANALYSIS IF NOT CONVERGED . . . . . .YES (EXIT)  
   CONVERGENCE CONTROLS. . . . . . . . . . . . . .USE DEFAULTS
   PRINT OUTPUT CONTROLS . . . . . . . . . . . . .NO PRINTOUT
   DATABASE OUTPUT CONTROLS
      ITEM     FREQUENCY   COMPONENT
       ALL       NONE               
      NSOL        ALL               
      RSOL        ALL               
      NLOA        ALL               
      STRS        ALL               
      EPEL        ALL               
      EPPL        ALL               
      EPTH        ALL               
      MISC        ALL       _ALLCONTACTS


 SOLUTION MONITORING INFO IS WRITTEN TO FILE= file.mntr                                                                                                                                                                                                                                                           

 >>>> PRETENSION ELEMENT STATUS <<<<
 SECTION NAME   PT.NODE  --------STATUS--------------------  ----LOAD SOURCE----
    22            26093  FIXED RELATIVE MOTION= 0.15635E-02  D COMMAND
 MAXIMUM NUMBER OF EQUILIBRIUM ITERATIONS HAS BEEN MODIFIED              
  TO BE, NEQIT = 26, BY SOLUTION CONTROL LOGIC.                          

     FORCE CONVERGENCE VALUE  =   103.4      CRITERION=   6.036    
     DISP CONVERGENCE VALUE   =  0.1674E-02  CRITERION=  0.8736E-04
    EQUIL ITER   1 COMPLETED.  NEW TRIANG MATRIX.  MAX DOF INC=  0.1674E-02
     DISP CONVERGENCE VALUE   =  0.1674E-02  CRITERION=  0.8914E-04
     LINE SEARCH PARAMETER =   1.000     SCALED MAX DOF INC =  0.1674E-02
     FORCE CONVERGENCE VALUE  =   130.5      CRITERION=   8.942    
    EQUIL ITER   2 COMPLETED.  NEW TRIANG MATRIX.  MAX DOF INC= -0.2839E-03
     DISP CONVERGENCE VALUE   =  0.2839E-03  CRITERION=  0.9302E-04
     LINE SEARCH PARAMETER =   1.000     SCALED MAX DOF INC = -0.2839E-03
     FORCE CONVERGENCE VALUE  =   52.47      CRITERION=   9.175    
    EQUIL ITER   3 COMPLETED.  NEW TRIANG MATRIX.  MAX DOF INC= -0.9775E-04
     DISP CONVERGENCE VALUE   =  0.9775E-04  CRITERION=  0.9560E-04
     LINE SEARCH PARAMETER =   1.000     SCALED MAX DOF INC = -0.9775E-04
     FORCE CONVERGENCE VALUE  =   21.36      CRITERION=   9.392    
    EQUIL ITER   4 COMPLETED.  NEW TRIANG MATRIX.  MAX DOF INC= -0.1905E-04
     DISP CONVERGENCE VALUE   =  0.1905E-04  CRITERION=  0.9765E-04 <<< CONVERGED
     LINE SEARCH PARAMETER =  0.9999     SCALED MAX DOF INC = -0.1905E-04
     FORCE CONVERGENCE VALUE  =  0.3900E-01  CRITERION=   9.592     <<< CONVERGED
    >>> SOLUTION CONVERGED AFTER EQUILIBRIUM ITERATION   4
 *** LOAD STEP     2   SUBSTEP     1  COMPLETED.    CUM ITER =     13
 *** TIME =   1.20000         TIME INC =  0.200000    
 *** AUTO STEP TIME:  NEXT TIME INC = 0.20000      UNCHANGED

     FORCE CONVERGENCE VALUE  =   265.2      CRITERION=   14.26    
     DISP CONVERGENCE VALUE   =  0.5165E-03  CRITERION=  0.9126E-04
    EQUIL ITER   1 COMPLETED.  NEW TRIANG MATRIX.  MAX DOF INC= -0.5165E-03
     DISP CONVERGENCE VALUE   =  0.5165E-03  CRITERION=  0.9312E-04
     LINE SEARCH PARAMETER =   1.000     SCALED MAX DOF INC = -0.5165E-03
     FORCE CONVERGENCE VALUE  =   57.01      CRITERION=   14.70    
    EQUIL ITER   2 COMPLETED.  NEW TRIANG MATRIX.  MAX DOF INC= -0.6594E-04
     DISP CONVERGENCE VALUE   =  0.6593E-04  CRITERION=  0.9530E-04 <<< CONVERGED
     LINE SEARCH PARAMETER =  0.9998     SCALED MAX DOF INC = -0.6593E-04
     FORCE CONVERGENCE VALUE  =  0.2956      CRITERION=   15.03     <<< CONVERGED
    >>> SOLUTION CONVERGED AFTER EQUILIBRIUM ITERATION   2
 *** LOAD STEP     2   SUBSTEP     2  COMPLETED.    CUM ITER =     15
 *** TIME =   1.40000         TIME INC =  0.200000    
 *** AUTO TIME STEP:  NEXT TIME INC = 0.30000      INCREASED (FACTOR = 1.5000)

     FORCE CONVERGENCE VALUE  =   690.7      CRITERION=   23.75    
     DISP CONVERGENCE VALUE   =  0.4120E-03  CRITERION=  0.1489E-03
    EQUIL ITER   1 COMPLETED.  NEW TRIANG MATRIX.  MAX DOF INC= -0.4120E-03
     DISP CONVERGENCE VALUE   =  0.4120E-03  CRITERION=  0.1519E-03
     LINE SEARCH PARAMETER =   1.000     SCALED MAX DOF INC = -0.4120E-03
     FORCE CONVERGENCE VALUE  =   126.4      CRITERION=   24.38    
    EQUIL ITER   2 COMPLETED.  NEW TRIANG MATRIX.  MAX DOF INC= -0.1535E-03
     DISP CONVERGENCE VALUE   =  0.1534E-03  CRITERION=  0.1631E-03 <<< CONVERGED
     LINE SEARCH PARAMETER =  0.9994     SCALED MAX DOF INC = -0.1534E-03
     FORCE CONVERGENCE VALUE  =   1.086      CRITERION=   24.95     <<< CONVERGED
    >>> SOLUTION CONVERGED AFTER EQUILIBRIUM ITERATION   2
 *** LOAD STEP     2   SUBSTEP     3  COMPLETED.    CUM ITER =     17
 *** TIME =   1.70000         TIME INC =  0.300000    
 *** AUTO STEP TIME:  NEXT TIME INC = 0.30000      UNCHANGED

     FORCE CONVERGENCE VALUE  =   164.2      CRITERION=   33.71    
     DISP CONVERGENCE VALUE   =  0.3804E-03  CRITERION=  0.1761E-03
    EQUIL ITER   1 COMPLETED.  NEW TRIANG MATRIX.  MAX DOF INC= -0.3804E-03
     DISP CONVERGENCE VALUE   =  0.3804E-03  CRITERION=  0.1797E-03
     LINE SEARCH PARAMETER =   1.000     SCALED MAX DOF INC = -0.3804E-03
     FORCE CONVERGENCE VALUE  =   27.43      CRITERION=   34.58     <<< CONVERGED
    EQUIL ITER   2 COMPLETED.  NEW TRIANG MATRIX.  MAX DOF INC= -0.3059E-04
     DISP CONVERGENCE VALUE   =  0.3059E-04  CRITERION=  0.1847E-03 <<< CONVERGED
     LINE SEARCH PARAMETER =   1.000     SCALED MAX DOF INC = -0.3059E-04
    >>> SOLUTION CONVERGED AFTER EQUILIBRIUM ITERATION   2
 *** LOAD STEP     2   SUBSTEP     4  COMPLETED.    CUM ITER =     19
 *** TIME =   2.00000         TIME INC =  0.300000    
 ****************************************************
 *************** FINISHED SOLVE FOR LS 2 *************
 ****************************************************
 ******************* SOLVE FOR LS 3 OF 3 ****************

 ALL SELECT   FOR ITEM=ELEM COMPONENT=    
  IN RANGE         1 TO       5766 STEP          1

       5766  ELEMENTS (OF       5766  DEFINED) SELECTED BY  ESEL  COMMAND.

 PRINTOUT RESUMED BY /GOP

 DELETE ALL SPECIFIED NODAL LOADS FROM NODE     26093 TO     26093 BY       1

 NUMBER OF NODAL LOADS DELETED=       0

 SPECIFIED CONSTRAINT UX   FOR SELECTED NODES        26093 TO       26093 BY           1
 SET ACCORDING TO TABLE PARAMETER = _FIX    

 USE AUTOMATIC TIME STEPPING THIS LOAD STEP

 USE       5 SUBSTEPS INITIALLY THIS LOAD STEP FOR ALL  DEGREES OF FREEDOM
 FOR AUTOMATIC TIME STEPPING:
   USE     20 SUBSTEPS AS A MAXIMUM
   USE      1 SUBSTEPS AS A MINIMUM

 TIME=  3.0000    

 ERASE THE CURRENT DATABASE OUTPUT CONTROL TABLE.


 WRITE ALL  ITEMS TO THE DATABASE WITH A FREQUENCY OF NONE
   FOR ALL APPLICABLE ENTITIES

 WRITE NSOL ITEMS TO THE DATABASE WITH A FREQUENCY OF ALL 
   FOR ALL APPLICABLE ENTITIES

 WRITE RSOL ITEMS TO THE DATABASE WITH A FREQUENCY OF ALL 
   FOR ALL APPLICABLE ENTITIES

 WRITE NLOA ITEMS TO THE DATABASE WITH A FREQUENCY OF ALL 
   FOR ALL APPLICABLE ENTITIES

 WRITE STRS ITEMS TO THE DATABASE WITH A FREQUENCY OF ALL 
   FOR ALL APPLICABLE ENTITIES

 WRITE EPEL ITEMS TO THE DATABASE WITH A FREQUENCY OF ALL 
   FOR ALL APPLICABLE ENTITIES

 WRITE EPPL ITEMS TO THE DATABASE WITH A FREQUENCY OF ALL 
   FOR ALL APPLICABLE ENTITIES

 WRITE EPTH ITEMS TO THE DATABASE WITH A FREQUENCY OF ALL 
   FOR ALL APPLICABLE ENTITIES

 WRITE MISC ITEMS TO THE DATABASE WITH A FREQUENCY OF ALL 
   FOR THE ENTITIES DEFINED BY COMPONENT _ALLCONTACTS

 NONLINEAR STABILIZATION CONTROL:
 KEY=OFF 


 *****  ANSYS SOLVE    COMMAND  *****

 *** WARNING ***                         CP =      47.391   TIME= 19:33:53
 Material number 19 (used by element 4776 ) should normally have at      
 least one MP or one TB type command associated with it.  Output of      
 energy by material may not be available.                                

 *** NOTE ***                            CP =      47.422   TIME= 19:33:53
 The step data was checked and warning messages were found.              
  Please review output or errors file ( C:\Users\Saraswathi              
 Andappan\Desktop\ANSYS Cornell\_ProjectScratch\ScrD813\file0.err ) for  
 these warning messages.                                                 

 *** NOTE ***                            CP =      47.422   TIME= 19:33:53
 This nonlinear analysis defaults to using the full Newton-Raphson       
 solution procedure.  This can be modified using the NROPT command.      

 *** ANSYS - ENGINEERING ANALYSIS SYSTEM  RELEASE Release 18.2     18.2     ***
 DISTRIBUTED ANSYS Academic Teaching Introductory              

 01055371  VERSION=WINDOWS x64   19:33:53  JUN 04, 2018 CP=     48.312

 Bolted Nozzle Flange--Static Structural (B5)                                  



                      L O A D   S T E P   O P T I O N S

   LOAD STEP NUMBER. . . . . . . . . . . . . . . .     3
   TIME AT END OF THE LOAD STEP. . . . . . . . . .  3.0000    
   AUTOMATIC TIME STEPPING . . . . . . . . . . . .    ON
      INITIAL NUMBER OF SUBSTEPS . . . . . . . . .     5
      MAXIMUM NUMBER OF SUBSTEPS . . . . . . . . .    20
      MINIMUM NUMBER OF SUBSTEPS . . . . . . . . .     1
   MAXIMUM NUMBER OF EQUILIBRIUM ITERATIONS. . . .    15
   STEP CHANGE BOUNDARY CONDITIONS . . . . . . . .    NO
   TERMINATE ANALYSIS IF NOT CONVERGED . . . . . .YES (EXIT)  
   CONVERGENCE CONTROLS. . . . . . . . . . . . . .USE DEFAULTS
   PRINT OUTPUT CONTROLS . . . . . . . . . . . . .NO PRINTOUT
   DATABASE OUTPUT CONTROLS
      ITEM     FREQUENCY   COMPONENT
       ALL       NONE               
      NSOL        ALL               
      RSOL        ALL               
      NLOA        ALL               
      STRS        ALL               
      EPEL        ALL               
      EPPL        ALL               
      EPTH        ALL               
      MISC        ALL       _ALLCONTACTS


 SOLUTION MONITORING INFO IS WRITTEN TO FILE= file.mntr                                                                                                                                                                                                                                                           

 >>>> PRETENSION ELEMENT STATUS <<<<
 SECTION NAME   PT.NODE  --------STATUS--------------------  ----LOAD SOURCE----
    22            26093  FIXED RELATIVE MOTION= 0.15635E-02  D COMMAND
 MAXIMUM NUMBER OF EQUILIBRIUM ITERATIONS HAS BEEN MODIFIED              
  TO BE, NEQIT = 26, BY SOLUTION CONTROL LOGIC.                          

     FORCE CONVERGENCE VALUE  =  0.3783E+06  CRITERION=   1930.    
     DISP CONVERGENCE VALUE   =  0.2016      CRITERION=  0.1047E-01
    EQUIL ITER   1 COMPLETED.  NEW TRIANG MATRIX.  MAX DOF INC= -0.2016    
     DISP CONVERGENCE VALUE   =  0.2016      CRITERION=  0.1069E-01
     LINE SEARCH PARAMETER =   1.000     SCALED MAX DOF INC = -0.2016    
     FORCE CONVERGENCE VALUE  =   1.464      CRITERION=   34.61     <<< CONVERGED
    EQUIL ITER   2 COMPLETED.  NEW TRIANG MATRIX.  MAX DOF INC= -0.4831E-06
     DISP CONVERGENCE VALUE   =  0.4829E-06  CRITERION=  0.1091E-01 <<< CONVERGED
     LINE SEARCH PARAMETER =  0.9998     SCALED MAX DOF INC = -0.4829E-06
    >>> SOLUTION CONVERGED AFTER EQUILIBRIUM ITERATION   2
 *** LOAD STEP     3   SUBSTEP     1  COMPLETED.    CUM ITER =     21
 *** TIME =   2.20000         TIME INC =  0.200000    
 *** AUTO STEP TIME:  NEXT TIME INC = 0.20000      UNCHANGED

     FORCE CONVERGENCE VALUE  =   1.645      CRITERION=   2347.    
     DISP CONVERGENCE VALUE   =  0.5910E-06  CRITERION=  0.1047E-01 <<< CONVERGED
    EQUIL ITER   1 COMPLETED.  NEW TRIANG MATRIX.  MAX DOF INC=  0.5910E-06
     DISP CONVERGENCE VALUE   =  0.5910E-06  CRITERION=  0.1069E-01 <<< CONVERGED
     LINE SEARCH PARAMETER =   1.000     SCALED MAX DOF INC =  0.5910E-06
     FORCE CONVERGENCE VALUE  =  0.1334E-01  CRITERION=   34.63     <<< CONVERGED
    EQUIL ITER   2 COMPLETED.  NEW TRIANG MATRIX.  MAX DOF INC=  0.2985E-08
     DISP CONVERGENCE VALUE   =  0.2985E-08  CRITERION=  0.1091E-01 <<< CONVERGED
     LINE SEARCH PARAMETER =   1.000     SCALED MAX DOF INC =  0.2985E-08
    >>> SOLUTION CONVERGED AFTER EQUILIBRIUM ITERATION   2
 *** LOAD STEP     3   SUBSTEP     2  COMPLETED.    CUM ITER =     23
 *** TIME =   2.40000         TIME INC =  0.200000    
 *** AUTO TIME STEP:  NEXT TIME INC = 0.30000      INCREASED (FACTOR = 1.5000)

     FORCE CONVERGENCE VALUE  =   3.384      CRITERION=   3514.    
     DISP CONVERGENCE VALUE   =  0.1667E-05  CRITERION=  0.1543E-01 <<< CONVERGED
    EQUIL ITER   1 COMPLETED.  NEW TRIANG MATRIX.  MAX DOF INC=  0.1667E-05
     DISP CONVERGENCE VALUE   =  0.1667E-05  CRITERION=  0.1574E-01 <<< CONVERGED
     LINE SEARCH PARAMETER =   1.000     SCALED MAX DOF INC =  0.1667E-05
     FORCE CONVERGENCE VALUE  =  0.6144E-02  CRITERION=   34.66     <<< CONVERGED
    >>> SOLUTION CONVERGED AFTER EQUILIBRIUM ITERATION   1
 *** LOAD STEP     3   SUBSTEP     3  COMPLETED.    CUM ITER =     24
 *** TIME =   2.70000         TIME INC =  0.300000    
 *** AUTO STEP TIME:  NEXT TIME INC = 0.30000      UNCHANGED

     FORCE CONVERGENCE VALUE  =   10.69      CRITERION=   3514.    
     DISP CONVERGENCE VALUE   =  0.2446E-05  CRITERION=  0.1543E-01 <<< CONVERGED
    EQUIL ITER   1 COMPLETED.  NEW TRIANG MATRIX.  MAX DOF INC=  0.2446E-05
     DISP CONVERGENCE VALUE   =  0.2446E-05  CRITERION=  0.1574E-01 <<< CONVERGED
     LINE SEARCH PARAMETER =   1.000     SCALED MAX DOF INC =  0.2446E-05
     FORCE CONVERGENCE VALUE  =  0.1840E-01  CRITERION=   34.69     <<< CONVERGED
    >>> SOLUTION CONVERGED AFTER EQUILIBRIUM ITERATION   1
 *** LOAD STEP     3   SUBSTEP     4  COMPLETED.    CUM ITER =     25
 *** TIME =   3.00000         TIME INC =  0.300000    
 ****************************************************
 *************** FINISHED SOLVE FOR LS 3 *************

 *GET  _WALLASOL  FROM  ACTI  ITEM=TIME WALL  VALUE=  19.5688889    

 PRINTOUT RESUMED BY /GOP

 FINISH SOLUTION PROCESSING


 ***** ROUTINE COMPLETED *****  CP =        62.859



 *** ANSYS - ENGINEERING ANALYSIS SYSTEM  RELEASE Release 18.2     18.2     ***
 DISTRIBUTED ANSYS Academic Teaching Introductory              

 01055371  VERSION=WINDOWS x64   19:34:08  JUN 04, 2018 CP=     62.859

 Bolted Nozzle Flange--Static Structural (B5)                                  



          ***** ANSYS RESULTS INTERPRETATION (POST1) *****

 *** NOTE ***                            CP =      62.859   TIME= 19:34:08
 Reading results into the database (SET command) will update the current 
 displacement and force boundary conditions in the database with the     
 values from the results file for that load set.  Note that any          
 subsequent solutions will use these values unless action is taken to    
 either SAVE the current values or not overwrite them (/EXIT,NOSAVE).    

 Set Encoding of XML File to:ISO-8859-1

 Set Output of XML File to:
     PARM,     ,     ,     ,     ,     ,     ,     ,     ,     ,     ,     ,
         ,     ,     ,     ,     ,     ,     ,

 DATABASE WRITTEN ON FILE  parm.xml                                                                                                                                                                                                                                                            

 EXIT THE ANSYS POST1 DATABASE PROCESSOR


 ***** ROUTINE COMPLETED *****  CP =        62.906



 PRINTOUT RESUMED BY /GOP

 *GET  _WALLDONE  FROM  ACTI  ITEM=TIME WALL  VALUE=  19.5688889    

 PARAMETER _PREPTIME =     1.000000000    

 PARAMETER _SOLVTIME =     63.00000000    

 PARAMETER _POSTTIME =     0.000000000    

 PARAMETER _TOTALTIM =     64.00000000    

 EXIT ANSYS WITHOUT SAVING DATABASE


 NUMBER OF WARNING MESSAGES ENCOUNTERED=          7
 NUMBER OF ERROR   MESSAGES ENCOUNTERED=          0

+--------- D I S T R I B U T E D   A N S Y S   S T A T I S T I C S ------------+

Release: Release 18.2       Build: 18.2       Update: UP20170726   Platform: WINDOWS x64 
Date Run: 06/04/2018   Time: 19:34     Process ID: 10772
Operating System: Windows 10  (Build: 16299)

Processor Model: Intel(R) Core(TM) i7-6500U CPU @ 2.50GHz

Compiler: Intel(R) FORTRAN Compiler Version 15.0.7  (Build: 20160518)
          Intel(R) C/C++ Compiler Version 15.0.7  (Build: 20160518)
          Intel(R) Math Kernel Library Version 2017.0.2 Product Build 20170126

Number of machines requested            :    1
Total number of cores available         :    4
Number of physical cores available      :    2
Number of processes requested           :    2
Number of threads per process requested :    1
Total number of cores requested         :    2 (Distributed Memory Parallel)               
MPI Type: INTELMPI
MPI Version: Intel(R) MPI Library 5.1.3 for Windows* OS


GPU Acceleration: Not Requested

Job Name: file0
Input File: dummy.dat

  Core                Machine Name   Working Directory
 -----------------------------------------------------
     0             LAPTOP-038T22HH   C:\Users\Saraswathi Andappan\Desktop\ANSYS Cornell\_ProjectScratch\ScrD813
     1             LAPTOP-038T22HH   C:\Users\Saraswathi Andappan\Desktop\ANSYS Cornell\_ProjectScratch\ScrD813
 
Latency time from master to core     1 =    1.081 microseconds
 
Communication speed from master to core     1 =  2955.25 MB/sec

Total CPU time for main thread                    :       60.6 seconds
Total CPU time summed for all threads             :       63.1 seconds

Elapsed time spent pre-processing model (/PREP7)  :        0.2 seconds
Elapsed time spent solution - preprocessing       :        0.6 seconds
Elapsed time spent computing solution             :       60.9 seconds
Elapsed time spent solution - postprocessing      :        0.3 seconds
Elapsed time spent post-processing model (/POST1) :        0.0 seconds
 
Equation solver used                              :            Sparse (symmetric)
Equation solver computational rate                :    14037.9 Mflops
Equation solver effective I/O rate                :    10581.5 MB/sec

Maximum total memory used                         :      367.0 MB
Maximum total memory allocated                    :     3136.0 MB
Total physical memory available                   :         12 GB

+------ E N D   D I S T R I B U T E D   A N S Y S   S T A T I S T I C S -------+


 *---------------------------------------------------------------------------*
 |                                                                           |
 |                       DISTRIBUTED ANSYS RUN COMPLETED                     |
 |                                                                           |
 |---------------------------------------------------------------------------|
 |                                                                           |
 | Ansys Release 18.2          Build 18.2         UP20170726     WINDOWS x64 |
 |                                                                           |
 |---------------------------------------------------------------------------|
 |                                                                           |
 | Database Requested(-db)  1024 MB    Scratch Memory Requested      1024 MB |
 | Maximum Database Used      21 MB    Maximum Scratch Memory Used    169 MB |
 |                                                                           |
 |---------------------------------------------------------------------------|
 |                                                                           |
 |        CP Time      (sec) =         63.141       Time  =  19:34:08        |
 |        Elapsed Time (sec) =         66.000       Date  =  06/04/2018      |
 |                                                                           |
 *---------------------------------------------------------------------------*
